
Circuit: * spice from s1s

Doing analysis at TEMP = 75.000000 and TNOM = 27.000000


Initial Transient Solution
--------------------------

Node                                   Voltage
----                                   -------
n0                                         1.2
n8                                         1.2
n9                                           0
n10                                          0
n11                                        1.2
n12                                        1.2
n13                                          0
n1                                           0
n14                                          0
n15                                        1.2
n16                                          0
n17                                        1.2
n2                                         1.2
n22                                        1.2
n23                                          0
n24                                        1.2
n25                                          0
n5                                         1.2
n18                                        1.2
n19                                          0
n20                                        1.2
n21                                          0
n3                                           0
n4                                           0
n6                                           0
n7                                           0
nseg_node_26                               1.2
nseg_node_27                               1.2
nseg_node_28                               1.2
nseg_node_29                               1.2
nseg_node_30                               1.2
nseg_node_31                               1.2
nseg_node_32                               1.2
nseg_node_33                               1.2
nseg_node_34                               1.2
nseg_node_35                               1.2
nseg_node_36                               1.2
nseg_node_37                               1.2
nseg_node_38                               1.2
nseg_node_39                               1.2
nseg_node_40                               1.2
nseg_node_41                               1.2
nseg_node_42                               1.2
nseg_node_43                               1.2
nseg_node_44                               1.2
gin                                          0
vdd                                        1.2
vdt#branch                                   0
vdd#branch                        -5.00403e-05


No. of Data Rows : 219

                                                                                                                * spice from s1s
                                                                                                                Transient Analysis  Sat Feb  7 10:35:13  2009
------------------------------------------------------------------------------------------------------------------------------------------------------------------------------------------------------------------------------------------------
Index   time            v(gin)          v(n8)           v(n10)          v(n12)          v(n14)          v(n22)          v(n24)          v(n16)          v(n18)          v(n20)          v(n3)           v(n4)           v(n6)           
------------------------------------------------------------------------------------------------------------------------------------------------------------------------------------------------------------------------------------------------
0	0.000000e+00	0.000000e+00	1.200000e+00	0.000000e+00	1.200000e+00	0.000000e+00	1.200000e+00	1.200000e+00	0.000000e+00	1.200000e+00	1.200000e+00	0.000000e+00	0.000000e+00	0.000000e+00	
1	1.000000e-13	0.000000e+00	1.201208e+00	6.739359e-02	1.201040e+00	1.996983e-03	1.202776e+00	1.202776e+00	1.994343e-03	1.202430e+00	1.202430e+00	3.920544e-02	3.920544e-02	3.919606e-02	
2	1.738149e-13	0.000000e+00	1.202523e+00	1.115613e-01	1.202174e+00	4.339007e-03	1.205241e+00	1.205241e+00	4.333143e-03	1.204798e+00	1.204798e+00	6.679067e-02	6.679067e-02	6.677503e-02	
3	3.214446e-13	0.000000e+00	1.205679e+00	1.903151e-01	1.204903e+00	1.039906e-02	1.210539e+00	1.210539e+00	1.038445e-02	1.209935e+00	1.209935e+00	1.193538e-01	1.193538e-01	1.193268e-01	
4	6.167040e-13	0.000000e+00	1.213040e+00	3.038746e-01	1.211290e+00	2.776969e-02	1.221309e+00	1.221309e+00	2.772676e-02	1.219648e+00	1.219648e+00	2.100502e-01	2.100502e-01	2.100067e-01	
5	1.207223e-12	0.000000e+00	1.223676e+00	4.320065e-01	1.220252e+00	6.734671e-02	1.235927e+00	1.235927e+00	6.723316e-02	1.231418e+00	1.231418e+00	3.445026e-01	3.445026e-01	3.444403e-01	
6	1.864861e-12	0.000000e+00	1.226989e+00	4.946820e-01	1.221957e+00	1.059658e-01	1.240813e+00	1.240813e+00	1.057947e-01	1.235511e+00	1.235511e+00	4.385174e-01	4.385174e-01	4.384477e-01	
7	2.767843e-12	0.000000e+00	1.223718e+00	5.269203e-01	1.216062e+00	1.426997e-01	1.237753e+00	1.237753e+00	1.425208e-01	1.233680e+00	1.233680e+00	5.070998e-01	5.070998e-01	5.070429e-01	
8	3.751696e-12	0.000000e+00	1.217720e+00	5.313155e-01	1.206396e+00	1.655066e-01	1.230988e+00	1.230988e+00	1.653789e-01	1.228471e+00	1.228471e+00	5.341694e-01	5.341694e-01	5.341536e-01	
9	5.392686e-12	0.000000e+00	1.209904e+00	5.117658e-01	1.190405e+00	1.803178e-01	1.221200e+00	1.221200e+00	1.802896e-01	1.220380e+00	1.220380e+00	5.283056e-01	5.283056e-01	5.283728e-01	
10	7.376149e-12	0.000000e+00	1.204725e+00	4.702824e-01	1.172998e+00	1.787945e-01	1.213485e+00	1.213485e+00	1.788348e-01	1.213637e+00	1.213637e+00	4.866392e-01	4.866392e-01	4.867789e-01	
11	9.958123e-12	0.000000e+00	1.201617e+00	4.102778e-01	1.154692e+00	1.656577e-01	1.207432e+00	1.207432e+00	1.657134e-01	1.208088e+00	1.208088e+00	4.213691e-01	4.213691e-01	4.215492e-01	
12	1.291768e-11	0.000000e+00	1.199815e+00	3.448799e-01	1.141388e+00	1.468006e-01	1.202776e+00	1.202776e+00	1.468421e-01	1.203632e+00	1.203632e+00	3.512418e-01	3.512418e-01	3.514248e-01	
13	1.701869e-11	0.000000e+00	1.198309e+00	2.674901e-01	1.135868e+00	1.220721e-01	1.198266e+00	1.198266e+00	1.220927e-01	1.199181e+00	1.199181e+00	2.704961e-01	2.704961e-01	2.706543e-01	
14	2.246242e-11	0.000000e+00	1.197268e+00	1.882960e-01	1.142298e+00	9.489487e-02	1.194767e+00	1.194767e+00	9.490593e-02	1.195594e+00	1.195594e+00	1.898763e-01	1.898763e-01	1.899946e-01	
15	3.162368e-11	0.000000e+00	1.196925e+00	1.019500e-01	1.161006e+00	6.190980e-02	1.192859e+00	1.192859e+00	6.191325e-02	1.193402e+00	1.193402e+00	1.027083e-01	1.027083e-01	1.027759e-01	
16	4.162368e-11	0.000000e+00	1.197475e+00	5.171186e-02	1.177126e+00	3.886900e-02	1.193559e+00	1.193559e+00	3.886738e-02	1.193798e+00	1.193798e+00	5.196645e-02	5.196645e-02	5.200087e-02	
17	5.162368e-11	0.000000e+00	1.198179e+00	2.618705e-02	1.186838e+00	2.439650e-02	1.195027e+00	1.195027e+00	2.439642e-02	1.195066e+00	1.195066e+00	2.625445e-02	2.625445e-02	2.627155e-02	
18	6.162368e-11	0.000000e+00	1.198757e+00	1.331884e-02	1.192518e+00	1.534068e-02	1.196428e+00	1.196428e+00	1.533984e-02	1.196361e+00	1.196361e+00	1.330240e-02	1.330240e-02	1.331108e-02	
19	7.162368e-11	0.000000e+00	1.199166e+00	6.821454e-03	1.195734e+00	9.670628e-03	1.197528e+00	1.197528e+00	9.671353e-03	1.197422e+00	1.197422e+00	6.794723e-03	6.794723e-03	6.799544e-03	
20	8.162368e-11	0.000000e+00	1.199432e+00	3.565686e-03	1.197548e+00	6.131671e-03	1.198315e+00	1.198315e+00	6.131703e-03	1.198205e+00	1.198205e+00	3.527015e-03	3.527015e-03	3.530104e-03	
21	9.162368e-11	0.000000e+00	1.199598e+00	1.908700e-03	1.198561e+00	3.917047e-03	1.198853e+00	1.198853e+00	3.917933e-03	1.198757e+00	1.198757e+00	1.886971e-03	1.886971e-03	1.889232e-03	
22	1.016237e-10	0.000000e+00	1.199697e+00	1.090821e-03	1.199125e+00	2.538489e-03	1.199206e+00	1.199206e+00	2.538672e-03	1.199128e+00	1.199128e+00	1.063209e-03	1.063209e-03	1.064991e-03	
23	1.116237e-10	0.000000e+00	1.199756e+00	6.609189e-04	1.199439e+00	1.674618e-03	1.199436e+00	1.199436e+00	1.675291e-03	1.199377e+00	1.199377e+00	6.481587e-04	6.481587e-04	6.495963e-04	
24	1.216237e-10	0.000000e+00	1.199789e+00	4.590856e-04	1.199613e+00	1.138763e-03	1.199581e+00	1.199581e+00	1.138865e-03	1.199537e+00	1.199537e+00	4.390201e-04	4.390201e-04	4.401685e-04	
25	1.316237e-10	0.000000e+00	1.199809e+00	3.422661e-04	1.199710e+00	8.017818e-04	1.199674e+00	1.199674e+00	8.022170e-04	1.199642e+00	1.199642e+00	3.329494e-04	3.329494e-04	3.338492e-04	
26	1.416237e-10	0.000000e+00	1.199820e+00	2.962090e-04	1.199764e+00	5.940926e-04	1.199730e+00	1.199730e+00	5.941083e-04	1.199708e+00	1.199708e+00	2.793897e-04	2.793897e-04	2.800766e-04	
27	1.516237e-10	0.000000e+00	1.199826e+00	2.606620e-04	1.199794e+00	4.624679e-04	1.199767e+00	1.199767e+00	4.627363e-04	1.199751e+00	1.199751e+00	2.518439e-04	2.518439e-04	2.523573e-04	
28	1.616237e-10	0.000000e+00	1.199830e+00	2.535156e-04	1.199811e+00	3.823452e-04	1.199788e+00	1.199788e+00	3.823138e-04	1.199778e+00	1.199778e+00	2.380291e-04	2.380291e-04	2.384037e-04	
29	1.716237e-10	0.000000e+00	1.199831e+00	2.399102e-04	1.199820e+00	3.307329e-04	1.199802e+00	1.199802e+00	3.309004e-04	1.199795e+00	1.199795e+00	2.306517e-04	2.306517e-04	2.309210e-04	
30	1.816237e-10	0.000000e+00	1.199833e+00	2.419341e-04	1.199826e+00	3.000811e-04	1.199810e+00	1.199810e+00	3.000334e-04	1.199805e+00	1.199805e+00	2.271208e-04	2.271208e-04	2.273103e-04	
31	1.916237e-10	0.000000e+00	1.199833e+00	2.348453e-04	1.199829e+00	2.796633e-04	1.199816e+00	1.199816e+00	2.797722e-04	1.199813e+00	1.199813e+00	2.249998e-04	2.249998e-04	2.251321e-04	
32	2.000000e-10	0.000000e+00	1.199833e+00	2.386151e-04	1.199831e+00	2.697819e-04	1.199818e+00	1.199818e+00	2.697371e-04	1.199816e+00	1.199816e+00	2.243070e-04	2.243070e-04	2.244033e-04	
33	2.010000e-10	9.600000e-03	1.199889e+00	2.371320e-04	1.199830e+00	2.685682e-04	1.199818e+00	1.199818e+00	2.685725e-04	1.199816e+00	1.199816e+00	2.241413e-04	2.241413e-04	2.242343e-04	
34	2.030000e-10	2.880000e-02	1.200089e+00	2.378933e-04	1.199831e+00	2.665996e-04	1.199819e+00	1.199819e+00	2.666278e-04	1.199817e+00	1.199817e+00	2.240013e-04	2.240013e-04	2.240877e-04	
35	2.070000e-10	6.720000e-02	1.200714e+00	2.453319e-04	1.199831e+00	2.634378e-04	1.199820e+00	1.199820e+00	2.634491e-04	1.199818e+00	1.199818e+00	2.237797e-04	2.237797e-04	2.238539e-04	
36	2.150000e-10	1.440000e-01	1.201519e+00	2.539586e-04	1.199832e+00	2.584396e-04	1.199821e+00	1.199821e+00	2.584579e-04	1.199820e+00	1.199820e+00	2.234566e-04	2.234566e-04	2.235110e-04	
37	2.250000e-10	2.400000e-01	1.199385e+00	2.239377e-04	1.199832e+00	2.544083e-04	1.199822e+00	1.199822e+00	2.544134e-04	1.199821e+00	1.199821e+00	2.232319e-04	2.232319e-04	2.232684e-04	
38	2.350000e-10	3.360000e-01	1.188807e+00	1.119953e-04	1.199831e+00	2.518135e-04	1.199823e+00	1.199823e+00	2.518247e-04	1.199822e+00	1.199822e+00	2.231018e-04	2.231018e-04	2.231262e-04	
39	2.450000e-10	4.320000e-01	1.162532e+00	-1.054397e-04	1.199828e+00	2.502558e-04	1.199823e+00	1.199823e+00	2.502580e-04	1.199823e+00	1.199823e+00	2.230395e-04	2.230395e-04	2.230556e-04	
40	2.550000e-10	5.280000e-01	1.114269e+00	-3.189892e-04	1.199827e+00	2.492313e-04	1.199823e+00	1.199823e+00	2.492391e-04	1.199823e+00	1.199823e+00	2.229965e-04	2.229965e-04	2.230072e-04	
41	2.650000e-10	6.240000e-01	1.035298e+00	2.094688e-04	1.199835e+00	2.487194e-04	1.199823e+00	1.199823e+00	2.487207e-04	1.199823e+00	1.199823e+00	2.229812e-04	2.229812e-04	2.229881e-04	
42	2.750000e-10	7.200000e-01	9.103356e-01	6.216551e-03	1.199912e+00	2.488164e-04	1.199824e+00	1.199824e+00	2.488223e-04	1.199823e+00	1.199823e+00	2.229641e-04	2.229641e-04	2.229686e-04	
43	2.850000e-10	8.160000e-01	7.306338e-01	3.308961e-02	1.200246e+00	2.507619e-04	1.199824e+00	1.199824e+00	2.507626e-04	1.199823e+00	1.199823e+00	2.229630e-04	2.229630e-04	2.229659e-04	
44	2.950000e-10	9.120000e-01	5.142100e-01	1.195533e-01	1.201100e+00	2.560665e-04	1.199824e+00	1.199824e+00	2.560703e-04	1.199824e+00	1.199824e+00	2.229543e-04	2.229543e-04	2.229562e-04	
45	3.050000e-10	1.008000e+00	3.185249e-01	3.112858e-01	1.197137e+00	2.321411e-04	1.199823e+00	1.199823e+00	2.321493e-04	1.199823e+00	1.199823e+00	2.229550e-04	2.229550e-04	2.229565e-04	
46	3.150000e-10	1.104000e+00	1.828384e-01	5.757958e-01	1.155097e+00	-2.736534e-05	1.199821e+00	1.199821e+00	-2.729487e-05	1.199821e+00	1.199821e+00	2.229226e-04	2.229226e-04	2.229264e-04	
47	3.250000e-10	1.200000e+00	1.012895e-01	8.125069e-01	1.007144e+00	-1.948801e-04	1.199818e+00	1.199818e+00	-1.948596e-04	1.199818e+00	1.199818e+00	2.229052e-04	2.229052e-04	2.229079e-04	
48	3.260000e-10	1.200000e+00	9.560026e-02	8.311121e-01	9.836878e-01	-1.400258e-04	1.199819e+00	1.199819e+00	-1.400427e-04	1.199819e+00	1.199819e+00	2.229056e-04	2.229056e-04	2.229073e-04	
49	3.280000e-10	1.200000e+00	8.477083e-02	8.666410e-01	9.343183e-01	1.318762e-04	1.199820e+00	1.199820e+00	1.317117e-04	1.199820e+00	1.199820e+00	2.229207e-04	2.229207e-04	2.229184e-04	
50	3.320000e-10	1.200000e+00	6.658274e-02	9.289659e-01	8.231115e-01	2.891410e-03	1.199844e+00	1.199844e+00	2.890162e-03	1.199839e+00	1.199839e+00	2.231208e-04	2.231208e-04	2.230831e-04	
51	3.400000e-10	1.200000e+00	4.086715e-02	1.024306e+00	5.847165e-01	3.040302e-02	1.200138e+00	1.200138e+00	3.039480e-02	1.200100e+00	1.200100e+00	2.259370e-04	2.259370e-04	2.255666e-04	
52	3.497987e-10	1.200000e+00	2.247934e-02	1.100044e+00	3.429012e-01	1.403046e-01	1.201104e+00	1.201104e+00	1.402782e-01	1.200993e+00	1.200993e+00	2.350140e-04	2.350140e-04	2.339749e-04	
53	3.597987e-10	1.200000e+00	1.233900e-02	1.144544e+00	1.899518e-01	3.457452e-01	1.195693e+00	1.195693e+00	3.457094e-01	1.196338e+00	1.196338e+00	1.829602e-04	1.829602e-04	1.891473e-04	
54	3.697987e-10	1.200000e+00	6.802990e-03	1.169089e+00	1.043187e-01	5.747089e-01	1.155989e+00	1.155989e+00	5.747065e-01	1.160645e+00	1.160645e+00	-1.781407e-04	-1.781407e-04	-1.378952e-04	
55	3.797987e-10	1.200000e+00	3.825162e-03	1.183041e+00	5.652438e-02	7.602857e-01	1.039034e+00	1.039034e+00	7.604178e-01	1.053319e+00	1.053319e+00	-5.093695e-04	-5.093695e-04	-5.696163e-04	
56	3.897987e-10	1.200000e+00	2.181764e-03	1.190506e+00	3.132060e-02	8.915681e-01	8.362616e-01	8.362616e-01	8.917824e-01	8.627971e-01	8.627970e-01	9.085406e-03	9.085406e-03	6.890964e-03	
57	3.997987e-10	1.200000e+00	1.306565e-03	1.194796e+00	1.769652e-02	9.863757e-01	5.950138e-01	5.950138e-01	9.863851e-01	6.305010e-01	6.305009e-01	5.941033e-02	5.941033e-02	4.869991e-02	
58	4.097987e-10	1.200000e+00	8.114143e-04	1.197030e+00	1.038612e-02	1.055906e+00	3.891217e-01	3.891217e-01	1.055791e+00	4.237788e-01	4.237787e-01	2.055341e-01	2.055341e-01	1.774121e-01	
59	4.197987e-10	1.200000e+00	5.571410e-04	1.198330e+00	6.384605e-03	1.104133e+00	2.498293e-01	2.498293e-01	1.104070e+00	2.791278e-01	2.791277e-01	4.565602e-01	4.565602e-01	4.122559e-01	
60	4.297987e-10	1.200000e+00	4.038024e-04	1.198991e+00	3.937756e-03	1.136478e+00	1.584424e-01	1.584424e-01	1.136416e+00	1.826338e-01	1.826338e-01	7.239138e-01	7.239138e-01	6.800004e-01	
61	4.397987e-10	1.200000e+00	3.331293e-04	1.199379e+00	2.618128e-03	1.157977e+00	9.786106e-02	9.786106e-02	1.157913e+00	1.165716e-01	1.165715e-01	9.234428e-01	9.234428e-01	8.926433e-01	
62	4.497987e-10	1.200000e+00	2.827223e-04	1.199578e+00	1.654896e-03	1.172313e+00	6.064768e-02	6.064768e-02	1.172250e+00	7.403602e-02	7.403599e-02	1.045754e+00	1.045754e+00	1.027317e+00	
63	4.597987e-10	1.200000e+00	2.658926e-04	1.199691e+00	1.222730e-03	1.181698e+00	3.718211e-02	3.718211e-02	1.181651e+00	4.669679e-02	4.669677e-02	1.115365e+00	1.115365e+00	1.104788e+00	
64	4.697987e-10	1.200000e+00	2.470541e-04	1.199756e+00	7.874720e-04	1.188013e+00	2.269351e-02	2.269351e-02	1.187979e+00	2.923394e-02	2.923393e-02	1.153975e+00	1.153975e+00	1.148062e+00	
65	4.797987e-10	1.200000e+00	2.454916e-04	1.199785e+00	6.695188e-04	1.192031e+00	1.378408e-02	1.378408e-02	1.192006e+00	1.817907e-02	1.817907e-02	1.175017e+00	1.175017e+00	1.171748e+00	
66	4.897987e-10	1.200000e+00	2.367637e-04	1.199810e+00	4.431801e-04	1.194807e+00	8.310774e-03	8.310774e-03	1.194789e+00	1.126153e-02	1.126153e-02	1.186453e+00	1.186453e+00	1.184645e+00	
67	4.997987e-10	1.200000e+00	2.390994e-04	1.199815e+00	4.384867e-04	1.196490e+00	5.091119e-03	5.091119e-03	1.196479e+00	6.977098e-03	6.977096e-03	1.192605e+00	1.192605e+00	1.191611e+00	
68	5.097987e-10	1.200000e+00	2.339701e-04	1.199827e+00	3.046625e-04	1.197719e+00	3.063118e-03	3.063118e-03	1.197711e+00	4.331801e-03	4.331800e-03	1.195946e+00	1.195946e+00	1.195394e+00	
69	5.197987e-10	1.200000e+00	2.369298e-04	1.199825e+00	3.378528e-04	1.198401e+00	1.963394e-03	1.963394e-03	1.198396e+00	2.726376e-03	2.726375e-03	1.197729e+00	1.197729e+00	1.197425e+00	
70	5.297987e-10	1.200000e+00	2.333619e-04	1.199833e+00	2.498567e-04	1.198956e+00	1.202526e-03	1.202526e-03	1.198952e+00	1.736114e-03	1.736113e-03	1.198706e+00	1.198706e+00	1.198534e+00	
71	5.397987e-10	1.200000e+00	2.360645e-04	1.199829e+00	2.920156e-04	1.199214e+00	8.610909e-04	8.610909e-04	1.199212e+00	1.151622e-03	1.151622e-03	1.199221e+00	1.199221e+00	1.199125e+00	
72	5.497987e-10	1.200000e+00	2.333663e-04	1.199834e+00	2.295641e-04	1.199474e+00	5.566879e-04	5.566879e-04	1.199473e+00	7.822009e-04	7.822007e-04	1.199509e+00	1.199509e+00	1.199454e+00	
73	5.597987e-10	1.200000e+00	2.356286e-04	1.199830e+00	2.698835e-04	1.199559e+00	4.758209e-04	4.758209e-04	1.199558e+00	5.767842e-04	5.767841e-04	1.199658e+00	1.199658e+00	1.199627e+00	
74	5.697987e-10	1.200000e+00	2.335207e-04	1.199834e+00	2.233658e-04	1.199689e+00	3.371026e-04	3.371026e-04	1.199688e+00	4.361526e-04	4.361525e-04	1.199744e+00	1.199744e+00	1.199726e+00	
75	5.797987e-10	1.200000e+00	2.353553e-04	1.199831e+00	2.583279e-04	1.199705e+00	3.405095e-04	3.405095e-04	1.199705e+00	3.689693e-04	3.689692e-04	1.199787e+00	1.199787e+00	1.199777e+00	
76	5.897987e-10	1.200000e+00	2.336915e-04	1.199834e+00	2.227021e-04	1.199776e+00	2.647175e-04	2.647175e-04	1.199776e+00	3.118008e-04	3.118008e-04	1.199813e+00	1.199813e+00	1.199807e+00	
77	5.997987e-10	1.200000e+00	2.351589e-04	1.199832e+00	2.516916e-04	1.199768e+00	2.916466e-04	2.916466e-04	1.199768e+00	2.941919e-04	2.941918e-04	1.199825e+00	1.199825e+00	1.199822e+00	
78	6.097987e-10	1.200000e+00	2.338434e-04	1.199834e+00	2.240020e-04	1.199810e+00	2.424362e-04	2.424362e-04	1.199810e+00	2.675028e-04	2.675027e-04	1.199834e+00	1.199834e+00	1.199832e+00	
79	6.197987e-10	1.200000e+00	2.350086e-04	1.199832e+00	2.474904e-04	1.199795e+00	2.727578e-04	2.727578e-04	1.199795e+00	2.672474e-04	2.672474e-04	1.199837e+00	1.199837e+00	1.199836e+00	
80	6.297987e-10	1.200000e+00	2.339697e-04	1.199834e+00	2.258136e-04	1.199823e+00	2.368633e-04	2.368633e-04	1.199823e+00	2.519180e-04	2.519179e-04	1.199840e+00	1.199840e+00	1.199839e+00	
81	6.397987e-10	1.200000e+00	2.348908e-04	1.199832e+00	2.446033e-04	1.199808e+00	2.644695e-04	2.644695e-04	1.199808e+00	2.574180e-04	2.574180e-04	1.199840e+00	1.199840e+00	1.199840e+00	
82	6.497987e-10	1.200000e+00	2.340720e-04	1.199834e+00	2.275805e-04	1.199827e+00	2.366233e-04	2.366233e-04	1.199827e+00	2.465819e-04	2.465818e-04	1.199841e+00	1.199841e+00	1.199841e+00	
83	6.597987e-10	1.200000e+00	2.347979e-04	1.199832e+00	2.425005e-04	1.199814e+00	2.601304e-04	2.601304e-04	1.199814e+00	2.537030e-04	2.537030e-04	1.199842e+00	1.199842e+00	1.199841e+00	
84	6.697987e-10	1.200000e+00	2.341537e-04	1.199833e+00	2.291187e-04	1.199828e+00	2.378908e-04	2.378908e-04	1.199828e+00	2.448863e-04	2.448863e-04	1.199842e+00	1.199842e+00	1.199842e+00	
85	6.797987e-10	1.200000e+00	2.347244e-04	1.199833e+00	2.409128e-04	1.199817e+00	2.574254e-04	2.574254e-04	1.199817e+00	2.521793e-04	2.521794e-04	1.199842e+00	1.199842e+00	1.199842e+00	
86	6.897987e-10	1.200000e+00	2.342187e-04	1.199833e+00	2.303932e-04	1.199828e+00	2.394134e-04	2.394134e-04	1.199828e+00	2.444731e-04	2.444731e-04	1.199842e+00	1.199842e+00	1.199842e+00	
87	6.997987e-10	1.200000e+00	2.346665e-04	1.199833e+00	2.396896e-04	1.199819e+00	2.555175e-04	2.555175e-04	1.199819e+00	2.514510e-04	2.514511e-04	1.199842e+00	1.199842e+00	1.199842e+00	
88	7.097987e-10	1.200000e+00	2.342700e-04	1.199833e+00	2.314238e-04	1.199827e+00	2.408098e-04	2.408098e-04	1.199827e+00	2.445021e-04	2.445021e-04	1.199842e+00	1.199842e+00	1.199842e+00	
89	7.197987e-10	1.200000e+00	2.346208e-04	1.199833e+00	2.387370e-04	1.199820e+00	2.540774e-04	2.540774e-04	1.199820e+00	2.510211e-04	2.510211e-04	1.199842e+00	1.199842e+00	1.199842e+00	
90	7.297987e-10	1.200000e+00	2.343105e-04	1.199833e+00	2.322465e-04	1.199827e+00	2.419892e-04	2.419892e-04	1.199827e+00	2.446746e-04	2.446746e-04	1.199842e+00	1.199842e+00	1.199842e+00	
91	7.397987e-10	1.200000e+00	2.345848e-04	1.199833e+00	2.379914e-04	1.199821e+00	2.529554e-04	2.529554e-04	1.199821e+00	2.507117e-04	2.507117e-04	1.199842e+00	1.199842e+00	1.199842e+00	
92	7.497987e-10	1.200000e+00	2.343424e-04	1.199833e+00	2.328988e-04	1.199826e+00	2.429538e-04	2.429538e-04	1.199826e+00	2.448850e-04	2.448850e-04	1.199842e+00	1.199842e+00	1.199842e+00	
93	7.597987e-10	1.200000e+00	2.345566e-04	1.199833e+00	2.374065e-04	1.199822e+00	2.520693e-04	2.520693e-04	1.199822e+00	2.504584e-04	2.504584e-04	1.199842e+00	1.199842e+00	1.199842e+00	
94	7.697987e-10	1.200000e+00	2.343674e-04	1.199833e+00	2.334139e-04	1.199825e+00	2.437318e-04	2.437318e-04	1.199826e+00	2.450966e-04	2.450966e-04	1.199842e+00	1.199842e+00	1.199842e+00	
95	7.797987e-10	1.200000e+00	2.345344e-04	1.199833e+00	2.369471e-04	1.199822e+00	2.513657e-04	2.513657e-04	1.199822e+00	2.502371e-04	2.502371e-04	1.199842e+00	1.199842e+00	1.199842e+00	
96	7.897987e-10	1.200000e+00	2.343870e-04	1.199833e+00	2.338197e-04	1.199825e+00	2.443553e-04	2.443553e-04	1.199825e+00	2.452974e-04	2.452974e-04	1.199842e+00	1.199842e+00	1.199842e+00	
97	7.997987e-10	1.200000e+00	2.345170e-04	1.199833e+00	2.365863e-04	1.199822e+00	2.508058e-04	2.508058e-04	1.199822e+00	2.500381e-04	2.500381e-04	1.199842e+00	1.199842e+00	1.199842e+00	
98	8.097987e-10	1.200000e+00	2.344024e-04	1.199833e+00	2.341388e-04	1.199825e+00	2.448535e-04	2.448535e-04	1.199825e+00	2.454841e-04	2.454840e-04	1.199842e+00	1.199842e+00	1.199842e+00	
99	8.197987e-10	1.200000e+00	2.345034e-04	1.199833e+00	2.363030e-04	1.199823e+00	2.503599e-04	2.503599e-04	1.199823e+00	2.498569e-04	2.498569e-04	1.199842e+00	1.199842e+00	1.199842e+00	
100	8.297987e-10	1.200000e+00	2.344144e-04	1.199833e+00	2.343896e-04	1.199825e+00	2.452510e-04	2.452510e-04	1.199825e+00	2.456564e-04	2.456563e-04	1.199842e+00	1.199842e+00	1.199842e+00	
101	8.397987e-10	1.200000e+00	2.344927e-04	1.199833e+00	2.360806e-04	1.199823e+00	2.500045e-04	2.500045e-04	1.199823e+00	2.496910e-04	2.496910e-04	1.199842e+00	1.199842e+00	1.199842e+00	
102	8.497987e-10	1.200000e+00	2.344239e-04	1.199833e+00	2.345866e-04	1.199824e+00	2.455681e-04	2.455681e-04	1.199824e+00	2.458150e-04	2.458150e-04	1.199842e+00	1.199842e+00	1.199842e+00	
103	8.597987e-10	1.200000e+00	2.344844e-04	1.199833e+00	2.359061e-04	1.199823e+00	2.497212e-04	2.497212e-04	1.199823e+00	2.495386e-04	2.495386e-04	1.199842e+00	1.199842e+00	1.199842e+00	
104	8.697987e-10	1.200000e+00	2.344312e-04	1.199833e+00	2.347411e-04	1.199824e+00	2.458211e-04	2.458211e-04	1.199824e+00	2.459611e-04	2.459610e-04	1.199842e+00	1.199842e+00	1.199842e+00	
105	8.797987e-10	1.200000e+00	2.344779e-04	1.199833e+00	2.357692e-04	1.199823e+00	2.494952e-04	2.494952e-04	1.199823e+00	2.493984e-04	2.493984e-04	1.199842e+00	1.199842e+00	1.199842e+00	
106	8.897987e-10	1.200000e+00	2.344370e-04	1.199833e+00	2.348623e-04	1.199824e+00	2.460231e-04	2.460231e-04	1.199824e+00	2.460956e-04	2.460956e-04	1.199842e+00	1.199842e+00	1.199842e+00	
107	8.997987e-10	1.200000e+00	2.344728e-04	1.199833e+00	2.356619e-04	1.199823e+00	2.493146e-04	2.493146e-04	1.199823e+00	2.492693e-04	2.492693e-04	1.199842e+00	1.199842e+00	1.199842e+00	
108	9.097987e-10	1.200000e+00	2.344415e-04	1.199833e+00	2.349573e-04	1.199824e+00	2.461846e-04	2.461846e-04	1.199824e+00	2.462196e-04	2.462196e-04	1.199842e+00	1.199842e+00	1.199842e+00	
109	9.197987e-10	1.200000e+00	2.344689e-04	1.199833e+00	2.355779e-04	1.199823e+00	2.491703e-04	2.491703e-04	1.199823e+00	2.491503e-04	2.491503e-04	1.199842e+00	1.199842e+00	1.199842e+00	
110	9.297987e-10	1.200000e+00	2.344450e-04	1.199833e+00	2.350316e-04	1.199824e+00	2.463138e-04	2.463138e-04	1.199824e+00	2.463340e-04	2.463339e-04	1.199842e+00	1.199842e+00	1.199842e+00	
111	9.397987e-10	1.200000e+00	2.344658e-04	1.199833e+00	2.355121e-04	1.199823e+00	2.490546e-04	2.490546e-04	1.199823e+00	2.490405e-04	2.490405e-04	1.199842e+00	1.199842e+00	1.199842e+00	
112	9.497987e-10	1.200000e+00	2.344477e-04	1.199833e+00	2.350898e-04	1.199824e+00	2.464175e-04	2.464175e-04	1.199824e+00	2.464395e-04	2.464395e-04	1.199842e+00	1.199842e+00	1.199842e+00	
113	9.597987e-10	1.200000e+00	2.344634e-04	1.199833e+00	2.354606e-04	1.199823e+00	2.489617e-04	2.489617e-04	1.199823e+00	2.489391e-04	2.489392e-04	1.199842e+00	1.199842e+00	1.199842e+00	
114	9.697987e-10	1.200000e+00	2.344498e-04	1.199833e+00	2.351353e-04	1.199824e+00	2.465008e-04	2.465008e-04	1.199824e+00	2.465369e-04	2.465369e-04	1.199842e+00	1.199842e+00	1.199842e+00	
115	9.797987e-10	1.200000e+00	2.344615e-04	1.199833e+00	2.354204e-04	1.199824e+00	2.488869e-04	2.488869e-04	1.199823e+00	2.488456e-04	2.488456e-04	1.199842e+00	1.199842e+00	1.199842e+00	
116	9.897987e-10	1.200000e+00	2.344514e-04	1.199833e+00	2.351709e-04	1.199824e+00	2.465680e-04	2.465680e-04	1.199824e+00	2.466269e-04	2.466269e-04	1.199842e+00	1.199842e+00	1.199842e+00	
117	9.997987e-10	1.200000e+00	2.344601e-04	1.199833e+00	2.353890e-04	1.199824e+00	2.488265e-04	2.488265e-04	1.199824e+00	2.487591e-04	2.487592e-04	1.199842e+00	1.199842e+00	1.199842e+00	
118	1.009799e-09	1.200000e+00	2.344527e-04	1.199833e+00	2.351986e-04	1.199824e+00	2.466225e-04	2.466225e-04	1.199824e+00	2.467100e-04	2.467100e-04	1.199842e+00	1.199842e+00	1.199842e+00	
119	1.019799e-09	1.200000e+00	2.344590e-04	1.199833e+00	2.353645e-04	1.199824e+00	2.487775e-04	2.487775e-04	1.199824e+00	2.486793e-04	2.486793e-04	1.199842e+00	1.199842e+00	1.199842e+00	
120	1.029799e-09	1.200000e+00	2.344537e-04	1.199833e+00	2.352202e-04	1.199824e+00	2.466668e-04	2.466668e-04	1.199824e+00	2.467869e-04	2.467868e-04	1.199842e+00	1.199842e+00	1.199842e+00	
121	1.039799e-09	1.200000e+00	2.344581e-04	1.199833e+00	2.353455e-04	1.199824e+00	2.487375e-04	2.487375e-04	1.199824e+00	2.486055e-04	2.486055e-04	1.199842e+00	1.199842e+00	1.199842e+00	
122	1.049799e-09	1.200000e+00	2.344544e-04	1.199833e+00	2.352370e-04	1.199824e+00	2.467030e-04	2.467030e-04	1.199824e+00	2.468579e-04	2.468579e-04	1.199842e+00	1.199842e+00	1.199842e+00	
123	1.059799e-09	1.200000e+00	2.344574e-04	1.199833e+00	2.353307e-04	1.199824e+00	2.487047e-04	2.487047e-04	1.199824e+00	2.485372e-04	2.485372e-04	1.199842e+00	1.199842e+00	1.199842e+00	
124	1.069799e-09	1.200000e+00	2.344550e-04	1.199833e+00	2.352500e-04	1.199824e+00	2.467328e-04	2.467328e-04	1.199824e+00	2.469236e-04	2.469235e-04	1.199842e+00	1.199842e+00	1.199842e+00	
125	1.079799e-09	1.200000e+00	2.344569e-04	1.199833e+00	2.353192e-04	1.199824e+00	2.486776e-04	2.486776e-04	1.199824e+00	2.484741e-04	2.484741e-04	1.199842e+00	1.199842e+00	1.199842e+00	
126	1.089799e-09	1.200000e+00	2.344554e-04	1.199833e+00	2.352601e-04	1.199824e+00	2.467575e-04	2.467575e-04	1.199824e+00	2.469843e-04	2.469842e-04	1.199842e+00	1.199842e+00	1.199842e+00	
127	1.099799e-09	1.200000e+00	2.344566e-04	1.199833e+00	2.353104e-04	1.199824e+00	2.486551e-04	2.486551e-04	1.199824e+00	2.484158e-04	2.484158e-04	1.199842e+00	1.199842e+00	1.199842e+00	
128	1.109799e-09	1.200000e+00	2.344558e-04	1.199833e+00	2.352678e-04	1.199824e+00	2.467782e-04	2.467782e-04	1.199824e+00	2.470404e-04	2.470404e-04	1.199842e+00	1.199842e+00	1.199842e+00	
129	1.119799e-09	1.200000e+00	2.344563e-04	1.199833e+00	2.353036e-04	1.199824e+00	2.486361e-04	2.486361e-04	1.199824e+00	2.483618e-04	2.483618e-04	1.199842e+00	1.199842e+00	1.199842e+00	
130	1.129799e-09	1.200000e+00	2.344560e-04	1.199833e+00	2.352738e-04	1.199824e+00	2.467957e-04	2.467957e-04	1.199824e+00	2.470924e-04	2.470923e-04	1.199842e+00	1.199842e+00	1.199842e+00	
131	1.139799e-09	1.200000e+00	2.344561e-04	1.199833e+00	2.352984e-04	1.199824e+00	2.486200e-04	2.486200e-04	1.199824e+00	2.483119e-04	2.483119e-04	1.199842e+00	1.199842e+00	1.199842e+00	
132	1.149799e-09	1.200000e+00	2.344562e-04	1.199833e+00	2.352783e-04	1.199824e+00	2.468107e-04	2.468107e-04	1.199824e+00	2.471404e-04	2.471404e-04	1.199842e+00	1.199842e+00	1.199842e+00	
133	1.159799e-09	1.200000e+00	2.344559e-04	1.199833e+00	2.352944e-04	1.199824e+00	2.486061e-04	2.486061e-04	1.199824e+00	2.482658e-04	2.482658e-04	1.199842e+00	1.199842e+00	1.199842e+00	
134	1.169799e-09	1.200000e+00	2.344563e-04	1.199833e+00	2.352818e-04	1.199824e+00	2.468236e-04	2.468236e-04	1.199824e+00	2.471848e-04	2.471848e-04	1.199842e+00	1.199842e+00	1.199842e+00	
135	1.179799e-09	1.200000e+00	2.344558e-04	1.199833e+00	2.352914e-04	1.199824e+00	2.485941e-04	2.485941e-04	1.199824e+00	2.482231e-04	2.482231e-04	1.199842e+00	1.199842e+00	1.199842e+00	
136	1.189799e-09	1.200000e+00	2.344564e-04	1.199833e+00	2.352844e-04	1.199824e+00	2.468349e-04	2.468349e-04	1.199824e+00	2.472259e-04	2.472259e-04	1.199842e+00	1.199842e+00	1.199842e+00	
137	1.199799e-09	1.200000e+00	2.344557e-04	1.199833e+00	2.352892e-04	1.199824e+00	2.485835e-04	2.485835e-04	1.199824e+00	2.481836e-04	2.481836e-04	1.199842e+00	1.199842e+00	1.199842e+00	
138	1.209799e-09	1.200000e+00	2.344565e-04	1.199833e+00	2.352863e-04	1.199824e+00	2.468450e-04	2.468450e-04	1.199824e+00	2.472639e-04	2.472639e-04	1.199842e+00	1.199842e+00	1.199842e+00	
139	1.219799e-09	1.200000e+00	2.344557e-04	1.199833e+00	2.352875e-04	1.199824e+00	2.485740e-04	2.485740e-04	1.199824e+00	2.481471e-04	2.481471e-04	1.199842e+00	1.199842e+00	1.199842e+00	
140	1.229799e-09	1.200000e+00	2.344565e-04	1.199833e+00	2.352877e-04	1.199824e+00	2.468540e-04	2.468540e-04	1.199824e+00	2.472991e-04	2.472990e-04	1.199842e+00	1.199842e+00	1.199842e+00	
141	1.239799e-09	1.200000e+00	2.344556e-04	1.199833e+00	2.352863e-04	1.199824e+00	2.485654e-04	2.485654e-04	1.199824e+00	2.481133e-04	2.481133e-04	1.199842e+00	1.199842e+00	1.199842e+00	
142	1.249799e-09	1.200000e+00	2.344565e-04	1.199833e+00	2.352887e-04	1.199824e+00	2.468622e-04	2.468622e-04	1.199824e+00	2.473316e-04	2.473315e-04	1.199842e+00	1.199842e+00	1.199842e+00	
143	1.259799e-09	1.200000e+00	2.344556e-04	1.199833e+00	2.352855e-04	1.199824e+00	2.485576e-04	2.485576e-04	1.199824e+00	2.480820e-04	2.480820e-04	1.199842e+00	1.199842e+00	1.199842e+00	
144	1.269799e-09	1.200000e+00	2.344566e-04	1.199833e+00	2.352894e-04	1.199824e+00	2.468698e-04	2.468698e-04	1.199824e+00	2.473617e-04	2.473616e-04	1.199842e+00	1.199842e+00	1.199842e+00	
145	1.279799e-09	1.200000e+00	2.344556e-04	1.199833e+00	2.352849e-04	1.199824e+00	2.485503e-04	2.485503e-04	1.199824e+00	2.480531e-04	2.480531e-04	1.199842e+00	1.199842e+00	1.199842e+00	
146	1.289799e-09	1.200000e+00	2.344566e-04	1.199833e+00	2.352899e-04	1.199824e+00	2.468768e-04	2.468768e-04	1.199824e+00	2.473895e-04	2.473895e-04	1.199842e+00	1.199842e+00	1.199842e+00	
147	1.299799e-09	1.200000e+00	2.344556e-04	1.199833e+00	2.352846e-04	1.199824e+00	2.485435e-04	2.485435e-04	1.199824e+00	2.480264e-04	2.480264e-04	1.199842e+00	1.199842e+00	1.199842e+00	
148	1.309799e-09	1.200000e+00	2.344565e-04	1.199833e+00	2.352901e-04	1.199824e+00	2.468834e-04	2.468834e-04	1.199824e+00	2.474152e-04	2.474152e-04	1.199842e+00	1.199842e+00	1.199842e+00	
149	1.319799e-09	1.200000e+00	2.344556e-04	1.199833e+00	2.352844e-04	1.199824e+00	2.485371e-04	2.485371e-04	1.199824e+00	2.480017e-04	2.480017e-04	1.199842e+00	1.199842e+00	1.199842e+00	
150	1.329799e-09	1.200000e+00	2.344565e-04	1.199833e+00	2.352903e-04	1.199824e+00	2.468897e-04	2.468897e-04	1.199824e+00	2.474390e-04	2.474390e-04	1.199842e+00	1.199842e+00	1.199842e+00	
151	1.339799e-09	1.200000e+00	2.344557e-04	1.199833e+00	2.352843e-04	1.199824e+00	2.485310e-04	2.485310e-04	1.199824e+00	2.479788e-04	2.479788e-04	1.199842e+00	1.199842e+00	1.199842e+00	
152	1.349799e-09	1.200000e+00	2.344565e-04	1.199833e+00	2.352903e-04	1.199824e+00	2.468958e-04	2.468958e-04	1.199824e+00	2.474610e-04	2.474610e-04	1.199842e+00	1.199842e+00	1.199842e+00	
153	1.359799e-09	1.200000e+00	2.344557e-04	1.199833e+00	2.352843e-04	1.199824e+00	2.485251e-04	2.485251e-04	1.199824e+00	2.479577e-04	2.479577e-04	1.199842e+00	1.199842e+00	1.199842e+00	
154	1.369799e-09	1.200000e+00	2.344565e-04	1.199833e+00	2.352903e-04	1.199824e+00	2.469016e-04	2.469016e-04	1.199824e+00	2.474814e-04	2.474814e-04	1.199842e+00	1.199842e+00	1.199842e+00	
155	1.379799e-09	1.200000e+00	2.344557e-04	1.199833e+00	2.352844e-04	1.199824e+00	2.485194e-04	2.485194e-04	1.199824e+00	2.479381e-04	2.479381e-04	1.199842e+00	1.199842e+00	1.199842e+00	
156	1.389799e-09	1.200000e+00	2.344565e-04	1.199833e+00	2.352902e-04	1.199824e+00	2.469072e-04	2.469072e-04	1.199824e+00	2.475003e-04	2.475002e-04	1.199842e+00	1.199842e+00	1.199842e+00	
157	1.399799e-09	1.200000e+00	2.344557e-04	1.199833e+00	2.352845e-04	1.199824e+00	2.485139e-04	2.485139e-04	1.199824e+00	2.479200e-04	2.479200e-04	1.199842e+00	1.199842e+00	1.199842e+00	
158	1.409799e-09	1.200000e+00	2.344565e-04	1.199833e+00	2.352900e-04	1.199824e+00	2.469127e-04	2.469127e-04	1.199824e+00	2.475177e-04	2.475177e-04	1.199842e+00	1.199842e+00	1.199842e+00	
159	1.419799e-09	1.200000e+00	2.344557e-04	1.199833e+00	2.352846e-04	1.199824e+00	2.485085e-04	2.485085e-04	1.199824e+00	2.479033e-04	2.479033e-04	1.199842e+00	1.199842e+00	1.199842e+00	
160	1.429799e-09	1.200000e+00	2.344564e-04	1.199833e+00	2.352899e-04	1.199824e+00	2.469181e-04	2.469181e-04	1.199824e+00	2.475338e-04	2.475338e-04	1.199842e+00	1.199842e+00	1.199842e+00	
161	1.439799e-09	1.200000e+00	2.344558e-04	1.199833e+00	2.352848e-04	1.199824e+00	2.485032e-04	2.485032e-04	1.199824e+00	2.478878e-04	2.478878e-04	1.199842e+00	1.199842e+00	1.199842e+00	
162	1.449799e-09	1.200000e+00	2.344564e-04	1.199833e+00	2.352897e-04	1.199824e+00	2.469233e-04	2.469233e-04	1.199824e+00	2.475487e-04	2.475487e-04	1.199842e+00	1.199842e+00	1.199842e+00	
163	1.459799e-09	1.200000e+00	2.344558e-04	1.199833e+00	2.352850e-04	1.199824e+00	2.484980e-04	2.484980e-04	1.199824e+00	2.478735e-04	2.478735e-04	1.199842e+00	1.199842e+00	1.199842e+00	
164	1.469799e-09	1.200000e+00	2.344564e-04	1.199833e+00	2.352895e-04	1.199824e+00	2.469285e-04	2.469285e-04	1.199824e+00	2.475625e-04	2.475625e-04	1.199842e+00	1.199842e+00	1.199842e+00	
165	1.479799e-09	1.200000e+00	2.344558e-04	1.199833e+00	2.352852e-04	1.199824e+00	2.484929e-04	2.484929e-04	1.199824e+00	2.478603e-04	2.478602e-04	1.199842e+00	1.199842e+00	1.199842e+00	
166	1.489799e-09	1.200000e+00	2.344564e-04	1.199833e+00	2.352893e-04	1.199824e+00	2.469336e-04	2.469336e-04	1.199824e+00	2.475753e-04	2.475752e-04	1.199842e+00	1.199842e+00	1.199842e+00	
167	1.499799e-09	1.200000e+00	2.344558e-04	1.199833e+00	2.352854e-04	1.199824e+00	2.484878e-04	2.484878e-04	1.199824e+00	2.478480e-04	2.478480e-04	1.199842e+00	1.199842e+00	1.199842e+00	
168	1.509799e-09	1.200000e+00	2.344563e-04	1.199833e+00	2.352891e-04	1.199824e+00	2.469387e-04	2.469387e-04	1.199824e+00	2.475871e-04	2.475870e-04	1.199842e+00	1.199842e+00	1.199842e+00	
169	1.519799e-09	1.200000e+00	2.344559e-04	1.199833e+00	2.352856e-04	1.199824e+00	2.484828e-04	2.484828e-04	1.199824e+00	2.478367e-04	2.478367e-04	1.199842e+00	1.199842e+00	1.199842e+00	
170	1.529799e-09	1.200000e+00	2.344563e-04	1.199833e+00	2.352889e-04	1.199824e+00	2.469437e-04	2.469437e-04	1.199824e+00	2.475980e-04	2.475980e-04	1.199842e+00	1.199842e+00	1.199842e+00	
171	1.539799e-09	1.200000e+00	2.344559e-04	1.199833e+00	2.352858e-04	1.199824e+00	2.484779e-04	2.484779e-04	1.199824e+00	2.478262e-04	2.478262e-04	1.199842e+00	1.199842e+00	1.199842e+00	
172	1.549799e-09	1.200000e+00	2.344563e-04	1.199833e+00	2.352887e-04	1.199824e+00	2.469486e-04	2.469486e-04	1.199824e+00	2.476081e-04	2.476080e-04	1.199842e+00	1.199842e+00	1.199842e+00	
173	1.559799e-09	1.200000e+00	2.344559e-04	1.199833e+00	2.352860e-04	1.199824e+00	2.484730e-04	2.484730e-04	1.199824e+00	2.478165e-04	2.478165e-04	1.199842e+00	1.199842e+00	1.199842e+00	
174	1.569799e-09	1.200000e+00	2.344563e-04	1.199833e+00	2.352885e-04	1.199824e+00	2.469535e-04	2.469535e-04	1.199824e+00	2.476174e-04	2.476174e-04	1.199842e+00	1.199842e+00	1.199842e+00	
175	1.579799e-09	1.200000e+00	2.344559e-04	1.199833e+00	2.352862e-04	1.199824e+00	2.484681e-04	2.484681e-04	1.199824e+00	2.478076e-04	2.478076e-04	1.199842e+00	1.199842e+00	1.199842e+00	
176	1.589799e-09	1.200000e+00	2.344563e-04	1.199833e+00	2.352883e-04	1.199824e+00	2.469584e-04	2.469584e-04	1.199824e+00	2.476260e-04	2.476260e-04	1.199842e+00	1.199842e+00	1.199842e+00	
177	1.599799e-09	1.200000e+00	2.344559e-04	1.199833e+00	2.352863e-04	1.199824e+00	2.484633e-04	2.484633e-04	1.199824e+00	2.477993e-04	2.477993e-04	1.199842e+00	1.199842e+00	1.199842e+00	
178	1.609799e-09	1.200000e+00	2.344562e-04	1.199833e+00	2.352882e-04	1.199824e+00	2.469632e-04	2.469632e-04	1.199824e+00	2.476340e-04	2.476340e-04	1.199842e+00	1.199842e+00	1.199842e+00	
179	1.619799e-09	1.200000e+00	2.344560e-04	1.199833e+00	2.352865e-04	1.199824e+00	2.484585e-04	2.484585e-04	1.199824e+00	2.477916e-04	2.477916e-04	1.199842e+00	1.199842e+00	1.199842e+00	
180	1.629799e-09	1.200000e+00	2.344562e-04	1.199833e+00	2.352880e-04	1.199824e+00	2.469680e-04	2.469680e-04	1.199824e+00	2.476414e-04	2.476414e-04	1.199842e+00	1.199842e+00	1.199842e+00	
181	1.639799e-09	1.200000e+00	2.344560e-04	1.199833e+00	2.352867e-04	1.199824e+00	2.484537e-04	2.484537e-04	1.199824e+00	2.477845e-04	2.477845e-04	1.199842e+00	1.199842e+00	1.199842e+00	
182	1.649799e-09	1.200000e+00	2.344562e-04	1.199833e+00	2.352878e-04	1.199824e+00	2.469728e-04	2.469728e-04	1.199824e+00	2.476482e-04	2.476482e-04	1.199842e+00	1.199842e+00	1.199842e+00	
183	1.659799e-09	1.200000e+00	2.344560e-04	1.199833e+00	2.352868e-04	1.199824e+00	2.484490e-04	2.484490e-04	1.199824e+00	2.477780e-04	2.477780e-04	1.199842e+00	1.199842e+00	1.199842e+00	
184	1.669799e-09	1.200000e+00	2.344562e-04	1.199833e+00	2.352877e-04	1.199824e+00	2.469775e-04	2.469775e-04	1.199824e+00	2.476546e-04	2.476546e-04	1.199842e+00	1.199842e+00	1.199842e+00	
185	1.679799e-09	1.200000e+00	2.344560e-04	1.199833e+00	2.352870e-04	1.199824e+00	2.484443e-04	2.484443e-04	1.199824e+00	2.477719e-04	2.477719e-04	1.199842e+00	1.199842e+00	1.199842e+00	
186	1.689799e-09	1.200000e+00	2.344562e-04	1.199833e+00	2.352875e-04	1.199824e+00	2.469822e-04	2.469822e-04	1.199824e+00	2.476604e-04	2.476604e-04	1.199842e+00	1.199842e+00	1.199842e+00	
187	1.699799e-09	1.200000e+00	2.344560e-04	1.199833e+00	2.352871e-04	1.199824e+00	2.484396e-04	2.484396e-04	1.199824e+00	2.477663e-04	2.477663e-04	1.199842e+00	1.199842e+00	1.199842e+00	
188	1.709799e-09	1.200000e+00	2.344562e-04	1.199833e+00	2.352874e-04	1.199824e+00	2.469869e-04	2.469869e-04	1.199824e+00	2.476658e-04	2.476658e-04	1.199842e+00	1.199842e+00	1.199842e+00	
189	1.719799e-09	1.200000e+00	2.344560e-04	1.199833e+00	2.352872e-04	1.199824e+00	2.484350e-04	2.484350e-04	1.199824e+00	2.477612e-04	2.477611e-04	1.199842e+00	1.199842e+00	1.199842e+00	
190	1.729799e-09	1.200000e+00	2.344562e-04	1.199833e+00	2.352873e-04	1.199824e+00	2.469916e-04	2.469916e-04	1.199824e+00	2.476708e-04	2.476708e-04	1.199842e+00	1.199842e+00	1.199842e+00	
191	1.739799e-09	1.200000e+00	2.344560e-04	1.199833e+00	2.352873e-04	1.199824e+00	2.484303e-04	2.484303e-04	1.199824e+00	2.477564e-04	2.477564e-04	1.199842e+00	1.199842e+00	1.199842e+00	
192	1.749799e-09	1.200000e+00	2.344561e-04	1.199833e+00	2.352872e-04	1.199824e+00	2.469962e-04	2.469962e-04	1.199824e+00	2.476755e-04	2.476754e-04	1.199842e+00	1.199842e+00	1.199842e+00	
193	1.759799e-09	1.200000e+00	2.344560e-04	1.199833e+00	2.352875e-04	1.199824e+00	2.484257e-04	2.484257e-04	1.199824e+00	2.477519e-04	2.477519e-04	1.199842e+00	1.199842e+00	1.199842e+00	
194	1.769799e-09	1.200000e+00	2.344561e-04	1.199833e+00	2.352871e-04	1.199824e+00	2.470008e-04	2.470008e-04	1.199824e+00	2.476797e-04	2.476797e-04	1.199842e+00	1.199842e+00	1.199842e+00	
195	1.779799e-09	1.200000e+00	2.344561e-04	1.199833e+00	2.352876e-04	1.199824e+00	2.484212e-04	2.484212e-04	1.199824e+00	2.477478e-04	2.477478e-04	1.199842e+00	1.199842e+00	1.199842e+00	
196	1.789799e-09	1.200000e+00	2.344561e-04	1.199833e+00	2.352870e-04	1.199824e+00	2.470054e-04	2.470054e-04	1.199824e+00	2.476837e-04	2.476837e-04	1.199842e+00	1.199842e+00	1.199842e+00	
197	1.799799e-09	1.200000e+00	2.344561e-04	1.199833e+00	2.352877e-04	1.199824e+00	2.484166e-04	2.484166e-04	1.199824e+00	2.477441e-04	2.477440e-04	1.199842e+00	1.199842e+00	1.199842e+00	
198	1.809799e-09	1.200000e+00	2.344561e-04	1.199833e+00	2.352869e-04	1.199824e+00	2.470099e-04	2.470099e-04	1.199824e+00	2.476874e-04	2.476873e-04	1.199842e+00	1.199842e+00	1.199842e+00	
199	1.819799e-09	1.200000e+00	2.344561e-04	1.199833e+00	2.352878e-04	1.199824e+00	2.484121e-04	2.484121e-04	1.199824e+00	2.477406e-04	2.477405e-04	1.199842e+00	1.199842e+00	1.199842e+00	
200	1.829799e-09	1.200000e+00	2.344561e-04	1.199833e+00	2.352868e-04	1.199824e+00	2.470145e-04	2.470145e-04	1.199824e+00	2.476908e-04	2.476907e-04	1.199842e+00	1.199842e+00	1.199842e+00	
201	1.839799e-09	1.200000e+00	2.344561e-04	1.199833e+00	2.352878e-04	1.199824e+00	2.484076e-04	2.484076e-04	1.199824e+00	2.477373e-04	2.477373e-04	1.199842e+00	1.199842e+00	1.199842e+00	
202	1.849799e-09	1.200000e+00	2.344561e-04	1.199833e+00	2.352867e-04	1.199824e+00	2.470190e-04	2.470190e-04	1.199824e+00	2.476939e-04	2.476939e-04	1.199842e+00	1.199842e+00	1.199842e+00	
203	1.859799e-09	1.200000e+00	2.344561e-04	1.199833e+00	2.352879e-04	1.199824e+00	2.484031e-04	2.484031e-04	1.199824e+00	2.477343e-04	2.477343e-04	1.199842e+00	1.199842e+00	1.199842e+00	
204	1.869799e-09	1.200000e+00	2.344561e-04	1.199833e+00	2.352866e-04	1.199824e+00	2.470235e-04	2.470235e-04	1.199824e+00	2.476968e-04	2.476968e-04	1.199842e+00	1.199842e+00	1.199842e+00	
205	1.879799e-09	1.200000e+00	2.344561e-04	1.199833e+00	2.352880e-04	1.199824e+00	2.483987e-04	2.483987e-04	1.199824e+00	2.477315e-04	2.477315e-04	1.199842e+00	1.199842e+00	1.199842e+00	
206	1.889799e-09	1.200000e+00	2.344561e-04	1.199833e+00	2.352866e-04	1.199824e+00	2.470279e-04	2.470279e-04	1.199824e+00	2.476995e-04	2.476995e-04	1.199842e+00	1.199842e+00	1.199842e+00	
207	1.899799e-09	1.200000e+00	2.344561e-04	1.199833e+00	2.352880e-04	1.199824e+00	2.483942e-04	2.483942e-04	1.199824e+00	2.477290e-04	2.477290e-04	1.199842e+00	1.199842e+00	1.199842e+00	
208	1.909799e-09	1.200000e+00	2.344561e-04	1.199833e+00	2.352865e-04	1.199824e+00	2.470323e-04	2.470323e-04	1.199824e+00	2.477020e-04	2.477019e-04	1.199842e+00	1.199842e+00	1.199842e+00	
209	1.919799e-09	1.200000e+00	2.344561e-04	1.199833e+00	2.352881e-04	1.199824e+00	2.483898e-04	2.483898e-04	1.199824e+00	2.477266e-04	2.477266e-04	1.199842e+00	1.199842e+00	1.199842e+00	
210	1.929799e-09	1.200000e+00	2.344561e-04	1.199833e+00	2.352865e-04	1.199824e+00	2.470367e-04	2.470367e-04	1.199824e+00	2.477043e-04	2.477042e-04	1.199842e+00	1.199842e+00	1.199842e+00	
211	1.939799e-09	1.200000e+00	2.344561e-04	1.199833e+00	2.352882e-04	1.199824e+00	2.483855e-04	2.483855e-04	1.199824e+00	2.477244e-04	2.477244e-04	1.199842e+00	1.199842e+00	1.199842e+00	
212	1.949799e-09	1.200000e+00	2.344561e-04	1.199833e+00	2.352864e-04	1.199824e+00	2.470411e-04	2.470411e-04	1.199824e+00	2.477064e-04	2.477064e-04	1.199842e+00	1.199842e+00	1.199842e+00	
213	1.959799e-09	1.200000e+00	2.344561e-04	1.199833e+00	2.352882e-04	1.199824e+00	2.483811e-04	2.483811e-04	1.199824e+00	2.477224e-04	2.477224e-04	1.199842e+00	1.199842e+00	1.199842e+00	
214	1.969799e-09	1.200000e+00	2.344561e-04	1.199833e+00	2.352864e-04	1.199824e+00	2.470455e-04	2.470455e-04	1.199824e+00	2.477083e-04	2.477083e-04	1.199842e+00	1.199842e+00	1.199842e+00	
215	1.979799e-09	1.200000e+00	2.344561e-04	1.199833e+00	2.352882e-04	1.199824e+00	2.483768e-04	2.483768e-04	1.199824e+00	2.477205e-04	2.477205e-04	1.199842e+00	1.199842e+00	1.199842e+00	
216	1.989799e-09	1.200000e+00	2.344560e-04	1.199833e+00	2.352863e-04	1.199824e+00	2.470498e-04	2.470498e-04	1.199824e+00	2.477102e-04	2.477102e-04	1.199842e+00	1.199842e+00	1.199842e+00	
217	1.999799e-09	1.200000e+00	2.344561e-04	1.199833e+00	2.352883e-04	1.199824e+00	2.483725e-04	2.483725e-04	1.199824e+00	2.477188e-04	2.477188e-04	1.199842e+00	1.199842e+00	1.199842e+00	
218	2.000000e-09	1.200000e+00	2.344560e-04	1.199833e+00	2.352861e-04	1.199824e+00	2.471517e-04	2.471517e-04	1.199824e+00	2.477322e-04	2.477322e-04	1.199842e+00	1.199842e+00	1.199842e+00	

                                                                                                                * spice from s1s
                                                                                                                Transient Analysis  Sat Feb  7 10:35:13  2009
------------------------------------------------------------------------------------------------------------------------------------------------------------------------------------------------------------------------------------------------
Index   time            v(n7)           
------------------------------------------------------------------------------------------------------------------------------------------------------------------------------------------------------------------------------------------------
0	0.000000e+00	0.000000e+00	
1	1.000000e-13	3.919620e-02	
2	1.738149e-13	6.677527e-02	
3	3.214446e-13	1.193272e-01	
4	6.167040e-13	2.100074e-01	
5	1.207223e-12	3.444412e-01	
6	1.864861e-12	4.384486e-01	
7	2.767843e-12	5.070438e-01	
8	3.751696e-12	5.341544e-01	
9	5.392686e-12	5.283735e-01	
10	7.376149e-12	4.867796e-01	
11	9.958123e-12	4.215499e-01	
12	1.291768e-11	3.514254e-01	
13	1.701869e-11	2.706549e-01	
14	2.246242e-11	1.899951e-01	
15	3.162368e-11	1.027762e-01	
16	4.162368e-11	5.200109e-02	
17	5.162368e-11	2.627168e-02	
18	6.162368e-11	1.331116e-02	
19	7.162368e-11	6.799589e-03	
20	8.162368e-11	3.530130e-03	
21	9.162368e-11	1.889246e-03	
22	1.016237e-10	1.064999e-03	
23	1.116237e-10	6.496006e-04	
24	1.216237e-10	4.401709e-04	
25	1.316237e-10	3.338504e-04	
26	1.416237e-10	2.800773e-04	
27	1.516237e-10	2.523576e-04	
28	1.616237e-10	2.384039e-04	
29	1.716237e-10	2.309211e-04	
30	1.816237e-10	2.273103e-04	
31	1.916237e-10	2.251321e-04	
32	2.000000e-10	2.244033e-04	
33	2.010000e-10	2.242343e-04	
34	2.030000e-10	2.240877e-04	
35	2.070000e-10	2.238539e-04	
36	2.150000e-10	2.235110e-04	
37	2.250000e-10	2.232684e-04	
38	2.350000e-10	2.231262e-04	
39	2.450000e-10	2.230556e-04	
40	2.550000e-10	2.230072e-04	
41	2.650000e-10	2.229881e-04	
42	2.750000e-10	2.229686e-04	
43	2.850000e-10	2.229659e-04	
44	2.950000e-10	2.229562e-04	
45	3.050000e-10	2.229565e-04	
46	3.150000e-10	2.229264e-04	
47	3.250000e-10	2.229079e-04	
48	3.260000e-10	2.229073e-04	
49	3.280000e-10	2.229184e-04	
50	3.320000e-10	2.230831e-04	
51	3.400000e-10	2.255666e-04	
52	3.497987e-10	2.339749e-04	
53	3.597987e-10	1.891473e-04	
54	3.697987e-10	-1.378951e-04	
55	3.797987e-10	-5.696155e-04	
56	3.897987e-10	6.890967e-03	
57	3.997987e-10	4.869991e-02	
58	4.097987e-10	1.774120e-01	
59	4.197987e-10	4.122557e-01	
60	4.297987e-10	6.800001e-01	
61	4.397987e-10	8.926429e-01	
62	4.497987e-10	1.027317e+00	
63	4.597987e-10	1.104788e+00	
64	4.697987e-10	1.148062e+00	
65	4.797987e-10	1.171748e+00	
66	4.897987e-10	1.184645e+00	
67	4.997987e-10	1.191611e+00	
68	5.097987e-10	1.195394e+00	
69	5.197987e-10	1.197425e+00	
70	5.297987e-10	1.198534e+00	
71	5.397987e-10	1.199125e+00	
72	5.497987e-10	1.199454e+00	
73	5.597987e-10	1.199627e+00	
74	5.697987e-10	1.199726e+00	
75	5.797987e-10	1.199777e+00	
76	5.897987e-10	1.199807e+00	
77	5.997987e-10	1.199822e+00	
78	6.097987e-10	1.199832e+00	
79	6.197987e-10	1.199836e+00	
80	6.297987e-10	1.199839e+00	
81	6.397987e-10	1.199840e+00	
82	6.497987e-10	1.199841e+00	
83	6.597987e-10	1.199841e+00	
84	6.697987e-10	1.199842e+00	
85	6.797987e-10	1.199842e+00	
86	6.897987e-10	1.199842e+00	
87	6.997987e-10	1.199842e+00	
88	7.097987e-10	1.199842e+00	
89	7.197987e-10	1.199842e+00	
90	7.297987e-10	1.199842e+00	
91	7.397987e-10	1.199842e+00	
92	7.497987e-10	1.199842e+00	
93	7.597987e-10	1.199842e+00	
94	7.697987e-10	1.199842e+00	
95	7.797987e-10	1.199842e+00	
96	7.897987e-10	1.199842e+00	
97	7.997987e-10	1.199842e+00	
98	8.097987e-10	1.199842e+00	
99	8.197987e-10	1.199842e+00	
100	8.297987e-10	1.199842e+00	
101	8.397987e-10	1.199842e+00	
102	8.497987e-10	1.199842e+00	
103	8.597987e-10	1.199842e+00	
104	8.697987e-10	1.199842e+00	
105	8.797987e-10	1.199842e+00	
106	8.897987e-10	1.199842e+00	
107	8.997987e-10	1.199842e+00	
108	9.097987e-10	1.199842e+00	
109	9.197987e-10	1.199842e+00	
110	9.297987e-10	1.199842e+00	
111	9.397987e-10	1.199842e+00	
112	9.497987e-10	1.199842e+00	
113	9.597987e-10	1.199842e+00	
114	9.697987e-10	1.199842e+00	
115	9.797987e-10	1.199842e+00	
116	9.897987e-10	1.199842e+00	
117	9.997987e-10	1.199842e+00	
118	1.009799e-09	1.199842e+00	
119	1.019799e-09	1.199842e+00	
120	1.029799e-09	1.199842e+00	
121	1.039799e-09	1.199842e+00	
122	1.049799e-09	1.199842e+00	
123	1.059799e-09	1.199842e+00	
124	1.069799e-09	1.199842e+00	
125	1.079799e-09	1.199842e+00	
126	1.089799e-09	1.199842e+00	
127	1.099799e-09	1.199842e+00	
128	1.109799e-09	1.199842e+00	
129	1.119799e-09	1.199842e+00	
130	1.129799e-09	1.199842e+00	
131	1.139799e-09	1.199842e+00	
132	1.149799e-09	1.199842e+00	
133	1.159799e-09	1.199842e+00	
134	1.169799e-09	1.199842e+00	
135	1.179799e-09	1.199842e+00	
136	1.189799e-09	1.199842e+00	
137	1.199799e-09	1.199842e+00	
138	1.209799e-09	1.199842e+00	
139	1.219799e-09	1.199842e+00	
140	1.229799e-09	1.199842e+00	
141	1.239799e-09	1.199842e+00	
142	1.249799e-09	1.199842e+00	
143	1.259799e-09	1.199842e+00	
144	1.269799e-09	1.199842e+00	
145	1.279799e-09	1.199842e+00	
146	1.289799e-09	1.199842e+00	
147	1.299799e-09	1.199842e+00	
148	1.309799e-09	1.199842e+00	
149	1.319799e-09	1.199842e+00	
150	1.329799e-09	1.199842e+00	
151	1.339799e-09	1.199842e+00	
152	1.349799e-09	1.199842e+00	
153	1.359799e-09	1.199842e+00	
154	1.369799e-09	1.199842e+00	
155	1.379799e-09	1.199842e+00	
156	1.389799e-09	1.199842e+00	
157	1.399799e-09	1.199842e+00	
158	1.409799e-09	1.199842e+00	
159	1.419799e-09	1.199842e+00	
160	1.429799e-09	1.199842e+00	
161	1.439799e-09	1.199842e+00	
162	1.449799e-09	1.199842e+00	
163	1.459799e-09	1.199842e+00	
164	1.469799e-09	1.199842e+00	
165	1.479799e-09	1.199842e+00	
166	1.489799e-09	1.199842e+00	
167	1.499799e-09	1.199842e+00	
168	1.509799e-09	1.199842e+00	
169	1.519799e-09	1.199842e+00	
170	1.529799e-09	1.199842e+00	
171	1.539799e-09	1.199842e+00	
172	1.549799e-09	1.199842e+00	
173	1.559799e-09	1.199842e+00	
174	1.569799e-09	1.199842e+00	
175	1.579799e-09	1.199842e+00	
176	1.589799e-09	1.199842e+00	
177	1.599799e-09	1.199842e+00	
178	1.609799e-09	1.199842e+00	
179	1.619799e-09	1.199842e+00	
180	1.629799e-09	1.199842e+00	
181	1.639799e-09	1.199842e+00	
182	1.649799e-09	1.199842e+00	
183	1.659799e-09	1.199842e+00	
184	1.669799e-09	1.199842e+00	
185	1.679799e-09	1.199842e+00	
186	1.689799e-09	1.199842e+00	
187	1.699799e-09	1.199842e+00	
188	1.709799e-09	1.199842e+00	
189	1.719799e-09	1.199842e+00	
190	1.729799e-09	1.199842e+00	
191	1.739799e-09	1.199842e+00	
192	1.749799e-09	1.199842e+00	
193	1.759799e-09	1.199842e+00	
194	1.769799e-09	1.199842e+00	
195	1.779799e-09	1.199842e+00	
196	1.789799e-09	1.199842e+00	
197	1.799799e-09	1.199842e+00	
198	1.809799e-09	1.199842e+00	
199	1.819799e-09	1.199842e+00	
200	1.829799e-09	1.199842e+00	
201	1.839799e-09	1.199842e+00	
202	1.849799e-09	1.199842e+00	
203	1.859799e-09	1.199842e+00	
204	1.869799e-09	1.199842e+00	
205	1.879799e-09	1.199842e+00	
206	1.889799e-09	1.199842e+00	
207	1.899799e-09	1.199842e+00	
208	1.909799e-09	1.199842e+00	
209	1.919799e-09	1.199842e+00	
210	1.929799e-09	1.199842e+00	
211	1.939799e-09	1.199842e+00	
212	1.949799e-09	1.199842e+00	
213	1.959799e-09	1.199842e+00	
214	1.969799e-09	1.199842e+00	
215	1.979799e-09	1.199842e+00	
216	1.989799e-09	1.199842e+00	
217	1.999799e-09	1.199842e+00	
218	2.000000e-09	1.199842e+00	

CPU time since last call: 0.192 seconds.

Total CPU time: 0.192 seconds.

Total DRAM available = 3034.875000 MB.
DRAM currently available = 2332.382812 MB.
Total ngspice program size = 7.364258 MB.
Resident set size = 3.030273 MB.
Shared ngspice pages = 464.000 kB.
Text (code) pages = 1.378906 MB.
Stack = 0 bytes.
Library pages = 5.531250 MB.

