
Circuit: * spice from s1s

Doing analysis at TEMP = 75.000000 and TNOM = 27.000000


Initial Transient Solution
--------------------------

Node                                   Voltage
----                                   -------
n0                                           0
n8                                           0
n9                                         1.2
n10                                        1.2
n11                                          0
n12                                          0
n13                                        1.2
n1                                         1.2
n14                                        1.2
n15                                          0
n16                                        1.2
n17                                          0
n2                                           0
n22                                          0
n23                                        1.2
n24                                          0
n25                                        1.2
n5                                           0
n18                                          0
n19                                        1.2
n20                                          0
n21                                        1.2
n3                                         1.2
n4                                         1.2
n6                                         1.2
n7                                         1.2
nseg_node_26                                 0
nseg_node_27                                 0
nseg_node_28                                 0
nseg_node_29                                 0
nseg_node_30                                 0
nseg_node_31                                 0
nseg_node_32                                 0
nseg_node_33                                 0
nseg_node_34                                 0
nseg_node_35                                 0
nseg_node_36                                 0
nseg_node_37                                 0
nseg_node_38                                 0
nseg_node_39                                 0
nseg_node_40                                 0
nseg_node_41                                 0
nseg_node_42                                 0
nseg_node_43                                 0
nseg_node_44                                 0
gin                                        1.2
vdd                                        1.2
vdt#branch                         1.31316e-07
vdd#branch                        -3.37255e-05


No. of Data Rows : 217

                                                                                                                * spice from s1s
                                                                                                                Transient Analysis  Sat Feb  7 10:35:14  2009
------------------------------------------------------------------------------------------------------------------------------------------------------------------------------------------------------------------------------------------------
Index   time            v(gin)          v(n8)           v(n10)          v(n12)          v(n14)          v(n22)          v(n24)          v(n16)          v(n18)          v(n20)          v(n3)           v(n4)           v(n6)           
------------------------------------------------------------------------------------------------------------------------------------------------------------------------------------------------------------------------------------------------
0	0.000000e+00	1.200000e+00	0.000000e+00	1.200000e+00	0.000000e+00	1.200000e+00	0.000000e+00	0.000000e+00	1.200000e+00	0.000000e+00	0.000000e+00	1.200000e+00	1.200000e+00	1.200000e+00	
1	1.000000e-13	1.200000e+00	-1.086504e-03	1.132770e+00	-9.401474e-04	1.198009e+00	-2.503832e-03	-2.503832e-03	1.198012e+00	-2.190078e-03	-2.190075e-03	1.160808e+00	1.160808e+00	1.160818e+00	
2	1.716167e-13	1.200000e+00	-2.225031e-03	1.089995e+00	-1.928687e-03	1.195767e+00	-4.654448e-03	-4.654448e-03	1.195773e+00	-4.254309e-03	-4.254301e-03	1.134021e+00	1.134021e+00	1.134036e+00	
3	3.148502e-13	1.200000e+00	-4.964734e-03	1.013730e+00	-4.315016e-03	1.189986e+00	-9.304589e-03	-9.304589e-03	1.190000e+00	-8.761833e-03	-8.761812e-03	1.082911e+00	1.082911e+00	1.082938e+00	
4	6.013171e-13	1.200000e+00	-1.148342e-02	9.038966e-01	-1.003265e-02	1.173471e+00	-1.900365e-02	-1.900365e-02	1.173511e+00	-1.753511e-02	-1.753506e-02	9.943317e-01	9.943317e-01	9.943741e-01	
5	1.174251e-12	1.200000e+00	-2.161175e-02	7.784037e-01	-1.891159e-02	1.135766e+00	-3.328970e-02	-3.328970e-02	1.135873e+00	-2.912680e-02	-2.912673e-02	8.616282e-01	8.616282e-01	8.616887e-01	
6	1.979908e-12	1.200000e+00	-2.643020e-02	7.002737e-01	-2.239205e-02	1.090042e+00	-4.061159e-02	-4.061159e-02	1.090213e+00	-3.531263e-02	-3.531258e-02	7.481558e-01	7.481558e-01	7.482247e-01	
7	3.098672e-12	1.200000e+00	-2.356344e-02	6.635196e-01	-1.651388e-02	1.048324e+00	-3.825789e-02	-3.825789e-02	1.048486e+00	-3.440111e-02	-3.440109e-02	6.762797e-01	6.762797e-01	6.763331e-01	
8	4.640749e-12	1.200000e+00	-1.641025e-02	6.643760e-01	-2.066494e-03	1.020410e+00	-2.969334e-02	-2.969334e-02	1.020473e+00	-2.796112e-02	-2.796112e-02	6.579359e-01	6.579359e-01	6.579284e-01	
9	6.755469e-12	1.200000e+00	-9.147308e-03	6.998140e-01	1.892970e-02	1.011953e+00	-1.944311e-02	-1.944311e-02	1.011919e+00	-1.928763e-02	-1.928763e-02	6.899540e-01	6.899540e-01	6.898521e-01	
10	9.738002e-12	1.200000e+00	-3.744931e-03	7.665680e-01	4.412148e-02	1.022972e+00	-9.873920e-03	-9.873920e-03	1.022917e+00	-1.055799e-02	-1.055799e-02	7.605843e-01	7.605843e-01	7.604016e-01	
11	1.366754e-11	1.200000e+00	-3.493382e-04	8.510357e-01	6.435722e-02	1.047495e+00	-1.972248e-03	-1.972248e-03	1.047468e+00	-2.976467e-03	-2.976468e-03	8.490327e-01	8.490327e-01	8.488283e-01	
12	1.911446e-11	1.200000e+00	2.093654e-03	9.462571e-01	6.989659e-02	1.079682e+00	4.546131e-03	4.546131e-03	1.079668e+00	3.515892e-03	3.515889e-03	9.457773e-01	9.457773e-01	9.456116e-01	
13	2.613861e-11	1.200000e+00	3.465248e-03	1.034509e+00	5.700737e-02	1.111739e+00	8.258432e-03	8.258432e-03	1.111731e+00	7.438634e-03	7.438630e-03	1.033452e+00	1.033452e+00	1.033347e+00	
14	3.432437e-11	1.200000e+00	3.637939e-03	1.100840e+00	3.768721e-02	1.138277e+00	8.916136e-03	8.916136e-03	1.138276e+00	8.416889e-03	8.416886e-03	1.098966e+00	1.098966e+00	1.098908e+00	
15	4.432437e-11	1.200000e+00	2.995553e-03	1.147461e+00	2.108378e-02	1.160239e+00	7.609568e-03	7.609568e-03	1.160238e+00	7.433109e-03	7.433107e-03	1.145691e+00	1.145691e+00	1.145664e+00	
16	5.432437e-11	1.200000e+00	2.175064e-03	1.172288e+00	1.162972e-02	1.174440e+00	5.744754e-03	5.744754e-03	1.174440e+00	5.764961e-03	5.764959e-03	1.170851e+00	1.170851e+00	1.170838e+00	
17	6.432437e-11	1.200000e+00	1.500025e-03	1.185336e+00	6.430534e-03	1.183595e+00	4.085672e-03	4.085672e-03	1.183594e+00	4.198876e-03	4.198875e-03	1.184337e+00	1.184337e+00	1.184330e+00	
18	7.432437e-11	1.200000e+00	1.021341e-03	1.192233e+00	3.608368e-03	1.189458e+00	2.818586e-03	2.818586e-03	1.189458e+00	2.958522e-03	2.958522e-03	1.191550e+00	1.191550e+00	1.191546e+00	
19	8.432437e-11	1.200000e+00	7.086647e-04	1.195831e+00	2.076588e-03	1.193218e+00	1.923470e-03	1.923470e-03	1.193217e+00	2.056606e-03	2.056606e-03	1.195405e+00	1.195405e+00	1.195402e+00	
20	9.432437e-11	1.200000e+00	5.134631e-04	1.197740e+00	1.246275e-03	1.195612e+00	1.319461e-03	1.319461e-03	1.195612e+00	1.430719e-03	1.430719e-03	1.197465e+00	1.197465e+00	1.197463e+00	
21	1.043244e-10	1.200000e+00	3.963537e-04	1.198726e+00	7.937817e-04	1.197146e+00	9.241111e-04	9.241111e-04	1.197145e+00	1.011385e-03	1.011385e-03	1.198567e+00	1.198567e+00	1.198565e+00	
22	1.143244e-10	1.200000e+00	3.265924e-04	1.199257e+00	5.459087e-04	1.198117e+00	6.701160e-04	6.701160e-04	1.198117e+00	7.346101e-04	7.346099e-04	1.199157e+00	1.199157e+00	1.199155e+00	
23	1.243244e-10	1.200000e+00	2.869095e-04	1.199525e+00	4.094565e-04	1.198741e+00	5.096671e-04	5.096671e-04	1.198741e+00	5.565206e-04	5.565205e-04	1.199474e+00	1.199474e+00	1.199472e+00	
24	1.343244e-10	1.200000e+00	2.634992e-04	1.199675e+00	3.336800e-04	1.199133e+00	4.092305e-04	4.092305e-04	1.199133e+00	4.415673e-04	4.415672e-04	1.199643e+00	1.199643e+00	1.199642e+00	
25	1.443244e-10	1.200000e+00	2.509833e-04	1.199746e+00	2.914347e-04	1.199387e+00	3.469032e-04	3.469032e-04	1.199387e+00	3.696467e-04	3.696467e-04	1.199735e+00	1.199735e+00	1.199734e+00	
26	1.543244e-10	1.200000e+00	2.432354e-04	1.199790e+00	2.675073e-04	1.199545e+00	3.084734e-04	3.084734e-04	1.199545e+00	3.233058e-04	3.233058e-04	1.199784e+00	1.199784e+00	1.199783e+00	
27	1.643244e-10	1.200000e+00	2.396567e-04	1.199808e+00	2.540706e-04	1.199648e+00	2.848282e-04	2.848282e-04	1.199648e+00	2.952984e-04	2.952983e-04	1.199811e+00	1.199811e+00	1.199810e+00	
28	1.743244e-10	1.200000e+00	2.369339e-04	1.199822e+00	2.461752e-04	1.199711e+00	2.703906e-04	2.703906e-04	1.199711e+00	2.767211e-04	2.767210e-04	1.199825e+00	1.199825e+00	1.199825e+00	
29	1.843244e-10	1.200000e+00	2.361823e-04	1.199825e+00	2.418398e-04	1.199753e+00	2.615276e-04	2.615276e-04	1.199753e+00	2.662758e-04	2.662758e-04	1.199833e+00	1.199833e+00	1.199833e+00	
30	1.943244e-10	1.200000e+00	2.350164e-04	1.199830e+00	2.390418e-04	1.199778e+00	2.561534e-04	2.561534e-04	1.199778e+00	2.586217e-04	2.586217e-04	1.199837e+00	1.199837e+00	1.199837e+00	
31	2.000000e-10	1.200000e+00	2.352756e-04	1.199830e+00	2.382906e-04	1.199789e+00	2.541032e-04	2.541032e-04	1.199789e+00	2.567263e-04	2.567263e-04	1.199839e+00	1.199839e+00	1.199838e+00	
32	2.010000e-10	1.190400e+00	1.786987e-04	1.199830e+00	2.380162e-04	1.199790e+00	2.537969e-04	2.537969e-04	1.199790e+00	2.559175e-04	2.559175e-04	1.199839e+00	1.199839e+00	1.199839e+00	
33	2.030000e-10	1.171200e+00	-1.182342e-05	1.199829e+00	2.377761e-04	1.199793e+00	2.532595e-04	2.532595e-04	1.199793e+00	2.552273e-04	2.552273e-04	1.199839e+00	1.199839e+00	1.199839e+00	
34	2.070000e-10	1.132800e+00	-5.042955e-04	1.199822e+00	2.372327e-04	1.199798e+00	2.522545e-04	2.522545e-04	1.199798e+00	2.538971e-04	2.538971e-04	1.199840e+00	1.199840e+00	1.199840e+00	
35	2.150000e-10	1.056000e+00	-7.164572e-04	1.199817e+00	2.364857e-04	1.199806e+00	2.508069e-04	2.508069e-04	1.199806e+00	2.519683e-04	2.519683e-04	1.199841e+00	1.199841e+00	1.199841e+00	
36	2.250000e-10	9.600000e-01	2.835876e-03	1.199867e+00	2.365302e-04	1.199812e+00	2.495830e-04	2.495830e-04	1.199812e+00	2.503227e-04	2.503226e-04	1.199841e+00	1.199841e+00	1.199841e+00	
37	2.350000e-10	8.640000e-01	1.553699e-02	1.200037e+00	2.379228e-04	1.199817e+00	2.488802e-04	2.488802e-04	1.199817e+00	2.493541e-04	2.493541e-04	1.199842e+00	1.199842e+00	1.199842e+00	
38	2.450000e-10	7.680000e-01	4.235214e-02	1.200346e+00	2.401824e-04	1.199819e+00	2.484070e-04	2.484070e-04	1.199819e+00	2.487088e-04	2.487088e-04	1.199842e+00	1.199842e+00	1.199842e+00	
39	2.550000e-10	6.720000e-01	8.678419e-02	1.200709e+00	2.417325e-04	1.199821e+00	2.481613e-04	2.481613e-04	1.199821e+00	2.483516e-04	2.483516e-04	1.199842e+00	1.199842e+00	1.199842e+00	
40	2.650000e-10	5.760000e-01	1.600135e-01	1.200734e+00	2.383763e-04	1.199822e+00	2.479668e-04	2.479668e-04	1.199822e+00	2.480915e-04	2.480915e-04	1.199842e+00	1.199842e+00	1.199842e+00	
41	2.750000e-10	4.800000e-01	2.821343e-01	1.196905e+00	1.966751e-04	1.199822e+00	2.478878e-04	2.478878e-04	1.199822e+00	2.479628e-04	2.479628e-04	1.199842e+00	1.199842e+00	1.199842e+00	
42	2.850000e-10	3.840000e-01	4.574087e-01	1.172752e+00	-3.388983e-05	1.199821e+00	2.477832e-04	2.477832e-04	1.199821e+00	2.478394e-04	2.478394e-04	1.199842e+00	1.199842e+00	1.199842e+00	
43	2.950000e-10	2.880000e-01	6.627219e-01	1.091955e+00	-5.552484e-04	1.199816e+00	2.477327e-04	2.477327e-04	1.199816e+00	2.477643e-04	2.477643e-04	1.199842e+00	1.199842e+00	1.199842e+00	
44	3.050000e-10	1.920000e-01	8.488102e-01	9.109685e-01	3.576519e-03	1.199845e+00	2.479339e-04	2.479339e-04	1.199845e+00	2.479319e-04	2.479319e-04	1.199842e+00	1.199842e+00	1.199842e+00	
45	3.150000e-10	9.600000e-02	9.860806e-01	6.413697e-01	4.021504e-02	1.200140e+00	2.504148e-04	2.504148e-04	1.200140e+00	2.501394e-04	2.501394e-04	1.199842e+00	1.199842e+00	1.199842e+00	
46	3.250000e-10	0.000000e+00	1.076982e+00	3.842231e-01	1.805977e-01	1.200885e+00	2.564007e-04	2.564007e-04	1.200884e+00	2.557499e-04	2.557499e-04	1.199842e+00	1.199842e+00	1.199842e+00	
47	3.260000e-10	0.000000e+00	1.083503e+00	3.638436e-01	2.037939e-01	1.200966e+00	2.570916e-04	2.570916e-04	1.200965e+00	2.564271e-04	2.564271e-04	1.199842e+00	1.199842e+00	1.199842e+00	
48	3.280000e-10	0.000000e+00	1.095942e+00	3.251291e-01	2.527799e-01	1.201035e+00	2.578891e-04	2.578891e-04	1.201035e+00	2.573618e-04	2.573618e-04	1.199842e+00	1.199842e+00	1.199842e+00	
49	3.320000e-10	0.000000e+00	1.117308e+00	2.592079e-01	3.622473e-01	1.199455e+00	2.462890e-04	2.462890e-04	1.199455e+00	2.483620e-04	2.483620e-04	1.199842e+00	1.199842e+00	1.199842e+00	
50	3.400000e-10	0.000000e+00	1.148488e+00	1.627888e-01	5.904289e-01	1.175156e+00	3.741557e-05	3.741557e-05	1.175163e+00	6.447281e-05	6.447260e-05	1.199840e+00	1.199840e+00	1.199840e+00	
51	3.500000e-10	0.000000e+00	1.171785e+00	8.864869e-02	8.268695e-01	1.068518e+00	-5.503384e-04	-5.503384e-04	1.068542e+00	-4.868044e-04	-4.868047e-04	1.199832e+00	1.199832e+00	1.199833e+00	
52	3.600000e-10	0.000000e+00	1.184508e+00	4.811426e-02	9.814339e-01	8.656994e-01	5.471792e-03	5.471792e-03	8.657351e-01	4.762386e-03	4.762391e-03	1.199899e+00	1.199899e+00	1.199891e+00	
53	3.700000e-10	0.000000e+00	1.191500e+00	2.648281e-02	1.075589e+00	6.258019e-01	4.307487e-02	4.307487e-02	6.258158e-01	3.874012e-02	3.874015e-02	1.200346e+00	1.200346e+00	1.200295e+00	
54	3.800000e-10	0.000000e+00	1.195293e+00	1.458123e-02	1.130358e+00	4.257684e-01	1.589292e-01	1.589292e-01	4.256539e-01	1.449748e-01	1.449749e-01	1.201253e+00	1.201253e+00	1.201216e+00	
55	3.900000e-10	0.000000e+00	1.197369e+00	8.157370e-03	1.160957e+00	2.885454e-01	3.635178e-01	3.635178e-01	2.883228e-01	3.376088e-01	3.376089e-01	1.193414e+00	1.193414e+00	1.195490e+00	
56	4.000000e-10	0.000000e+00	1.198489e+00	4.562896e-03	1.177915e+00	1.949312e-01	5.959135e-01	5.959135e-01	1.948787e-01	5.623769e-01	5.623771e-01	1.143883e+00	1.143883e+00	1.154333e+00	
57	4.100000e-10	0.000000e+00	1.199105e+00	2.627822e-03	1.187285e+00	1.293076e-01	7.896876e-01	7.896876e-01	1.293930e-01	7.566507e-01	7.566508e-01	1.001825e+00	1.001825e+00	1.029457e+00	
58	4.200000e-10	0.000000e+00	1.199434e+00	1.542234e-03	1.192571e+00	8.520806e-02	9.252774e-01	9.252774e-01	8.525052e-02	8.960159e-01	8.960160e-01	7.544026e-01	7.544026e-01	8.012802e-01	
59	4.300000e-10	0.000000e+00	1.199619e+00	9.608857e-04	1.195544e+00	5.614517e-02	1.021813e+00	1.021813e+00	5.618992e-02	9.956751e-01	9.956751e-01	4.759471e-01	4.759471e-01	5.255375e-01	
60	4.400000e-10	0.000000e+00	1.199714e+00	6.342217e-04	1.197312e+00	3.718287e-02	1.088423e+00	1.088423e+00	3.723872e-02	1.067451e+00	1.067452e+00	2.624732e-01	2.624732e-01	2.967674e-01	
61	4.500000e-10	0.000000e+00	1.199771e+00	4.584174e-04	1.198292e+00	2.463397e-02	1.130792e+00	1.130792e+00	2.471864e-02	1.115323e+00	1.115323e+00	1.374293e-01	1.374293e-01	1.565509e-01	
62	4.600000e-10	0.000000e+00	1.199798e+00	3.596574e-04	1.198919e+00	1.633446e-02	1.157732e+00	1.157732e+00	1.639948e-02	1.146488e+00	1.146489e+00	7.098465e-02	7.098465e-02	8.130202e-02	
63	4.700000e-10	0.000000e+00	1.199815e+00	3.051376e-04	1.199246e+00	1.081664e-02	1.174317e+00	1.174317e+00	1.086874e-02	1.166545e+00	1.166545e+00	3.632939e-02	3.632939e-02	4.172518e-02	
64	4.800000e-10	0.000000e+00	1.199823e+00	2.753502e-04	1.199489e+00	7.179329e-03	1.184600e+00	1.184600e+00	7.218152e-03	1.179259e+00	1.179259e+00	1.862533e-02	1.862533e-02	2.143682e-02	
65	4.900000e-10	0.000000e+00	1.199829e+00	2.575866e-04	1.199597e+00	4.772553e-03	1.190686e+00	1.190686e+00	4.799289e-03	1.187134e+00	1.187134e+00	9.592805e-03	9.592805e-03	1.105727e-02	
66	5.000000e-10	0.000000e+00	1.199830e+00	2.488803e-04	1.199701e+00	3.193713e-03	1.194468e+00	1.194468e+00	3.213408e-03	1.192111e+00	1.192111e+00	4.999153e-03	4.999153e-03	5.767127e-03	
67	5.100000e-10	0.000000e+00	1.199832e+00	2.424895e-04	1.199733e+00	2.159099e-03	1.196600e+00	1.196600e+00	2.170885e-03	1.195064e+00	1.195064e+00	2.664176e-03	2.664176e-03	3.066808e-03	
68	5.200000e-10	0.000000e+00	1.199832e+00	2.402721e-04	1.199783e+00	1.482251e-03	1.197977e+00	1.197977e+00	1.491834e-03	1.196987e+00	1.196987e+00	1.473254e-03	1.473254e-03	1.691588e-03	
69	5.300000e-10	0.000000e+00	1.199834e+00	2.375594e-04	1.199789e+00	1.045422e-03	1.198688e+00	1.198688e+00	1.049858e-03	1.198046e+00	1.198046e+00	8.662672e-04	8.662672e-04	9.803309e-04	
70	5.400000e-10	0.000000e+00	1.199833e+00	2.373254e-04	1.199815e+00	7.582555e-04	1.199200e+00	1.199200e+00	7.630623e-04	1.198800e+00	1.198800e+00	5.551536e-04	5.551536e-04	6.212777e-04	
71	5.500000e-10	0.000000e+00	1.199834e+00	2.359079e-04	1.199812e+00	5.774313e-04	1.199419e+00	1.199419e+00	5.786051e-04	1.199154e+00	1.199154e+00	3.949045e-04	3.949045e-04	4.282143e-04	
72	5.600000e-10	0.000000e+00	1.199833e+00	2.362434e-04	1.199827e+00	4.561550e-04	1.199621e+00	1.199621e+00	4.587944e-04	1.199466e+00	1.199466e+00	3.129808e-04	3.129808e-04	3.347177e-04	
73	5.700000e-10	0.000000e+00	1.199834e+00	2.353524e-04	1.199823e+00	3.831402e-04	1.199674e+00	1.199674e+00	3.830046e-04	1.199563e+00	1.199563e+00	2.696160e-04	2.696160e-04	2.794951e-04	
74	5.800000e-10	0.000000e+00	1.199834e+00	2.358079e-04	1.199832e+00	3.316390e-04	1.199763e+00	1.199763e+00	3.332778e-04	1.199707e+00	1.199707e+00	2.480027e-04	2.480027e-04	2.558279e-04	
75	5.900000e-10	0.000000e+00	1.199834e+00	2.351763e-04	1.199827e+00	3.032518e-04	1.199764e+00	1.199764e+00	3.026671e-04	1.199715e+00	1.199715e+00	2.357663e-04	2.357663e-04	2.386128e-04	
76	6.000000e-10	0.000000e+00	1.199834e+00	2.356113e-04	1.199834e+00	2.808974e-04	1.199810e+00	1.199810e+00	2.820384e-04	1.199794e+00	1.199794e+00	2.301885e-04	2.301885e-04	2.332753e-04	
77	6.100000e-10	0.000000e+00	1.199834e+00	2.351344e-04	1.199830e+00	2.706231e-04	1.199797e+00	1.199797e+00	2.699439e-04	1.199772e+00	1.199772e+00	2.264662e-04	2.264662e-04	2.271764e-04	
78	6.200000e-10	0.000000e+00	1.199834e+00	2.355100e-04	1.199834e+00	2.604570e-04	1.199824e+00	1.199824e+00	2.613174e-04	1.199824e+00	1.199824e+00	2.251666e-04	2.251666e-04	2.264938e-04	
79	6.300000e-10	0.000000e+00	1.199834e+00	2.351390e-04	1.199831e+00	2.573335e-04	1.199810e+00	1.199810e+00	2.566941e-04	1.199794e+00	1.199794e+00	2.238763e-04	2.238763e-04	2.239605e-04	
80	6.400000e-10	0.000000e+00	1.199834e+00	2.354502e-04	1.199834e+00	2.523370e-04	1.199828e+00	1.199828e+00	2.530149e-04	1.199834e+00	1.199834e+00	2.236958e-04	2.236958e-04	2.243126e-04	
81	6.500000e-10	0.000000e+00	1.199834e+00	2.351579e-04	1.199831e+00	2.519023e-04	1.199815e+00	1.199815e+00	2.513457e-04	1.199804e+00	1.199804e+00	2.231540e-04	2.231540e-04	2.230812e-04	
82	6.600000e-10	0.000000e+00	1.199834e+00	2.354106e-04	1.199834e+00	2.491779e-04	1.199828e+00	1.199828e+00	2.497229e-04	1.199836e+00	1.199836e+00	2.232402e-04	2.232402e-04	2.235470e-04	
83	6.700000e-10	0.000000e+00	1.199834e+00	2.351793e-04	1.199832e+00	2.496520e-04	1.199818e+00	1.199818e+00	2.491845e-04	1.199808e+00	1.199808e+00	2.229591e-04	2.229591e-04	2.228686e-04	
84	6.800000e-10	0.000000e+00	1.199834e+00	2.353822e-04	1.199834e+00	2.479945e-04	1.199828e+00	1.199828e+00	2.484359e-04	1.199836e+00	1.199836e+00	2.230863e-04	2.230863e-04	2.232478e-04	
85	6.900000e-10	0.000000e+00	1.199834e+00	2.351990e-04	1.199832e+00	2.486901e-04	1.199819e+00	1.199819e+00	2.483048e-04	1.199810e+00	1.199810e+00	2.229135e-04	2.229135e-04	2.228402e-04	
86	7.000000e-10	0.000000e+00	1.199834e+00	2.353609e-04	1.199833e+00	2.475861e-04	1.199827e+00	1.199827e+00	2.479441e-04	1.199835e+00	1.199835e+00	2.230271e-04	2.230271e-04	2.231162e-04	
87	7.100000e-10	0.000000e+00	1.199834e+00	2.352158e-04	1.199832e+00	2.482545e-04	1.199820e+00	1.199820e+00	2.479404e-04	1.199812e+00	1.199812e+00	2.229090e-04	2.229090e-04	2.228563e-04	
88	7.200000e-10	0.000000e+00	1.199834e+00	2.353443e-04	1.199833e+00	2.474738e-04	1.199826e+00	1.199826e+00	2.477639e-04	1.199835e+00	1.199835e+00	2.230002e-04	2.230002e-04	2.230512e-04	
89	7.300000e-10	0.000000e+00	1.199834e+00	2.352296e-04	1.199833e+00	2.480386e-04	1.199821e+00	1.199821e+00	2.477843e-04	1.199813e+00	1.199813e+00	2.229145e-04	2.229145e-04	2.228781e-04	
90	7.400000e-10	0.000000e+00	1.199834e+00	2.353313e-04	1.199833e+00	2.474688e-04	1.199826e+00	1.199826e+00	2.477035e-04	1.199834e+00	1.199834e+00	2.229857e-04	2.229857e-04	2.230159e-04	
91	7.500000e-10	0.000000e+00	1.199834e+00	2.352408e-04	1.199833e+00	2.479185e-04	1.199822e+00	1.199822e+00	2.477138e-04	1.199814e+00	1.199814e+00	2.229212e-04	2.229212e-04	2.228960e-04	
92	7.600000e-10	0.000000e+00	1.199834e+00	2.353211e-04	1.199833e+00	2.474981e-04	1.199825e+00	1.199825e+00	2.476875e-04	1.199833e+00	1.199833e+00	2.229767e-04	2.229767e-04	2.229952e-04	
93	7.700000e-10	0.000000e+00	1.199834e+00	2.352498e-04	1.199833e+00	2.478436e-04	1.199822e+00	1.199822e+00	2.476794e-04	1.199815e+00	1.199815e+00	2.229271e-04	2.229271e-04	2.229092e-04	
94	7.800000e-10	0.000000e+00	1.199834e+00	2.353130e-04	1.199833e+00	2.475343e-04	1.199825e+00	1.199825e+00	2.476870e-04	1.199832e+00	1.199832e+00	2.229707e-04	2.229707e-04	2.229824e-04	
95	7.900000e-10	0.000000e+00	1.199834e+00	2.352569e-04	1.199833e+00	2.477924e-04	1.199822e+00	1.199822e+00	2.476611e-04	1.199815e+00	1.199815e+00	2.229317e-04	2.229317e-04	2.229184e-04	
96	8.000000e-10	0.000000e+00	1.199834e+00	2.353066e-04	1.199833e+00	2.475678e-04	1.199825e+00	1.199825e+00	2.476908e-04	1.199832e+00	1.199832e+00	2.229664e-04	2.229664e-04	2.229742e-04	
97	8.100000e-10	0.000000e+00	1.199834e+00	2.352626e-04	1.199833e+00	2.477552e-04	1.199823e+00	1.199823e+00	2.476506e-04	1.199816e+00	1.199816e+00	2.229353e-04	2.229353e-04	2.229248e-04	
98	8.200000e-10	0.000000e+00	1.199834e+00	2.353016e-04	1.199833e+00	2.475961e-04	1.199825e+00	1.199825e+00	2.476951e-04	1.199831e+00	1.199831e+00	2.229632e-04	2.229632e-04	2.229687e-04	
99	8.300000e-10	0.000000e+00	1.199834e+00	2.352671e-04	1.199833e+00	2.477273e-04	1.199823e+00	1.199823e+00	2.476442e-04	1.199817e+00	1.199817e+00	2.229380e-04	2.229380e-04	2.229293e-04	
100	8.400000e-10	0.000000e+00	1.199834e+00	2.352976e-04	1.199833e+00	2.476190e-04	1.199824e+00	1.199824e+00	2.476987e-04	1.199830e+00	1.199830e+00	2.229608e-04	2.229608e-04	2.229650e-04	
101	8.500000e-10	0.000000e+00	1.199834e+00	2.352706e-04	1.199833e+00	2.477060e-04	1.199823e+00	1.199823e+00	2.476402e-04	1.199817e+00	1.199817e+00	2.229401e-04	2.229401e-04	2.229325e-04	
102	8.600000e-10	0.000000e+00	1.199834e+00	2.352945e-04	1.199833e+00	2.476371e-04	1.199824e+00	1.199824e+00	2.477013e-04	1.199830e+00	1.199830e+00	2.229590e-04	2.229590e-04	2.229624e-04	
103	8.700000e-10	0.000000e+00	1.199834e+00	2.352733e-04	1.199833e+00	2.476897e-04	1.199823e+00	1.199823e+00	2.476377e-04	1.199818e+00	1.199818e+00	2.229417e-04	2.229417e-04	2.229347e-04	
104	8.800000e-10	0.000000e+00	1.199834e+00	2.352921e-04	1.199833e+00	2.476512e-04	1.199824e+00	1.199824e+00	2.477030e-04	1.199829e+00	1.199829e+00	2.229577e-04	2.229577e-04	2.229605e-04	
105	8.900000e-10	0.000000e+00	1.199834e+00	2.352754e-04	1.199833e+00	2.476771e-04	1.199823e+00	1.199823e+00	2.476362e-04	1.199818e+00	1.199818e+00	2.229429e-04	2.229429e-04	2.229364e-04	
106	9.000000e-10	0.000000e+00	1.199834e+00	2.352902e-04	1.199833e+00	2.476621e-04	1.199824e+00	1.199824e+00	2.477041e-04	1.199829e+00	1.199829e+00	2.229566e-04	2.229566e-04	2.229591e-04	
107	9.100000e-10	0.000000e+00	1.199834e+00	2.352771e-04	1.199833e+00	2.476675e-04	1.199823e+00	1.199823e+00	2.476354e-04	1.199819e+00	1.199819e+00	2.229439e-04	2.229439e-04	2.229377e-04	
108	9.200000e-10	0.000000e+00	1.199834e+00	2.352887e-04	1.199833e+00	2.476704e-04	1.199824e+00	1.199824e+00	2.477045e-04	1.199829e+00	1.199829e+00	2.229557e-04	2.229557e-04	2.229581e-04	
109	9.300000e-10	0.000000e+00	1.199834e+00	2.352783e-04	1.199833e+00	2.476602e-04	1.199823e+00	1.199823e+00	2.476352e-04	1.199819e+00	1.199819e+00	2.229447e-04	2.229447e-04	2.229387e-04	
110	9.400000e-10	0.000000e+00	1.199834e+00	2.352876e-04	1.199833e+00	2.476768e-04	1.199824e+00	1.199824e+00	2.477046e-04	1.199828e+00	1.199828e+00	2.229551e-04	2.229551e-04	2.229573e-04	
111	9.500000e-10	0.000000e+00	1.199834e+00	2.352793e-04	1.199833e+00	2.476547e-04	1.199823e+00	1.199823e+00	2.476353e-04	1.199819e+00	1.199819e+00	2.229453e-04	2.229453e-04	2.229396e-04	
112	9.600000e-10	0.000000e+00	1.199834e+00	2.352868e-04	1.199833e+00	2.476815e-04	1.199824e+00	1.199824e+00	2.477043e-04	1.199828e+00	1.199828e+00	2.229545e-04	2.229545e-04	2.229566e-04	
113	9.700000e-10	0.000000e+00	1.199834e+00	2.352801e-04	1.199833e+00	2.476506e-04	1.199823e+00	1.199823e+00	2.476356e-04	1.199820e+00	1.199820e+00	2.229458e-04	2.229458e-04	2.229402e-04	
114	9.800000e-10	0.000000e+00	1.199834e+00	2.352862e-04	1.199833e+00	2.476851e-04	1.199824e+00	1.199824e+00	2.477039e-04	1.199828e+00	1.199828e+00	2.229541e-04	2.229541e-04	2.229560e-04	
115	9.900000e-10	0.000000e+00	1.199834e+00	2.352806e-04	1.199833e+00	2.476476e-04	1.199823e+00	1.199823e+00	2.476362e-04	1.199820e+00	1.199820e+00	2.229462e-04	2.229462e-04	2.229408e-04	
116	1.000000e-09	0.000000e+00	1.199834e+00	2.352857e-04	1.199833e+00	2.476876e-04	1.199824e+00	1.199824e+00	2.477033e-04	1.199827e+00	1.199827e+00	2.229537e-04	2.229537e-04	2.229555e-04	
117	1.010000e-09	0.000000e+00	1.199834e+00	2.352810e-04	1.199833e+00	2.476454e-04	1.199823e+00	1.199823e+00	2.476369e-04	1.199820e+00	1.199820e+00	2.229466e-04	2.229466e-04	2.229413e-04	
118	1.020000e-09	0.000000e+00	1.199834e+00	2.352853e-04	1.199833e+00	2.476894e-04	1.199824e+00	1.199824e+00	2.477026e-04	1.199827e+00	1.199827e+00	2.229534e-04	2.229534e-04	2.229551e-04	
119	1.030000e-09	0.000000e+00	1.199834e+00	2.352813e-04	1.199833e+00	2.476439e-04	1.199823e+00	1.199823e+00	2.476376e-04	1.199820e+00	1.199820e+00	2.229469e-04	2.229469e-04	2.229418e-04	
120	1.040000e-09	0.000000e+00	1.199834e+00	2.352851e-04	1.199833e+00	2.476907e-04	1.199824e+00	1.199824e+00	2.477018e-04	1.199827e+00	1.199827e+00	2.229532e-04	2.229532e-04	2.229548e-04	
121	1.050000e-09	0.000000e+00	1.199834e+00	2.352815e-04	1.199833e+00	2.476430e-04	1.199823e+00	1.199823e+00	2.476384e-04	1.199821e+00	1.199821e+00	2.229471e-04	2.229471e-04	2.229422e-04	
122	1.060000e-09	0.000000e+00	1.199834e+00	2.352849e-04	1.199833e+00	2.476915e-04	1.199824e+00	1.199824e+00	2.477010e-04	1.199827e+00	1.199827e+00	2.229530e-04	2.229530e-04	2.229544e-04	
123	1.070000e-09	0.000000e+00	1.199834e+00	2.352817e-04	1.199833e+00	2.476424e-04	1.199823e+00	1.199823e+00	2.476392e-04	1.199821e+00	1.199821e+00	2.229473e-04	2.229473e-04	2.229426e-04	
124	1.080000e-09	0.000000e+00	1.199834e+00	2.352848e-04	1.199833e+00	2.476919e-04	1.199824e+00	1.199824e+00	2.477002e-04	1.199826e+00	1.199826e+00	2.229528e-04	2.229528e-04	2.229541e-04	
125	1.090000e-09	0.000000e+00	1.199834e+00	2.352818e-04	1.199833e+00	2.476421e-04	1.199823e+00	1.199823e+00	2.476401e-04	1.199821e+00	1.199821e+00	2.229475e-04	2.229475e-04	2.229429e-04	
126	1.100000e-09	0.000000e+00	1.199834e+00	2.352847e-04	1.199833e+00	2.476921e-04	1.199824e+00	1.199824e+00	2.476993e-04	1.199826e+00	1.199826e+00	2.229526e-04	2.229526e-04	2.229539e-04	
127	1.110000e-09	0.000000e+00	1.199834e+00	2.352818e-04	1.199833e+00	2.476420e-04	1.199823e+00	1.199823e+00	2.476409e-04	1.199821e+00	1.199821e+00	2.229477e-04	2.229477e-04	2.229432e-04	
128	1.120000e-09	0.000000e+00	1.199834e+00	2.352847e-04	1.199833e+00	2.476921e-04	1.199824e+00	1.199824e+00	2.476985e-04	1.199826e+00	1.199826e+00	2.229525e-04	2.229525e-04	2.229536e-04	
129	1.130000e-09	0.000000e+00	1.199834e+00	2.352818e-04	1.199833e+00	2.476421e-04	1.199823e+00	1.199823e+00	2.476417e-04	1.199821e+00	1.199821e+00	2.229478e-04	2.229478e-04	2.229435e-04	
130	1.140000e-09	0.000000e+00	1.199834e+00	2.352847e-04	1.199833e+00	2.476919e-04	1.199824e+00	1.199824e+00	2.476977e-04	1.199826e+00	1.199826e+00	2.229523e-04	2.229523e-04	2.229534e-04	
131	1.150000e-09	0.000000e+00	1.199834e+00	2.352818e-04	1.199833e+00	2.476423e-04	1.199823e+00	1.199823e+00	2.476425e-04	1.199822e+00	1.199822e+00	2.229480e-04	2.229480e-04	2.229438e-04	
132	1.160000e-09	0.000000e+00	1.199834e+00	2.352847e-04	1.199833e+00	2.476916e-04	1.199824e+00	1.199824e+00	2.476969e-04	1.199826e+00	1.199826e+00	2.229522e-04	2.229522e-04	2.229532e-04	
133	1.170000e-09	0.000000e+00	1.199834e+00	2.352818e-04	1.199833e+00	2.476427e-04	1.199823e+00	1.199823e+00	2.476433e-04	1.199822e+00	1.199822e+00	2.229481e-04	2.229481e-04	2.229440e-04	
134	1.180000e-09	0.000000e+00	1.199834e+00	2.352847e-04	1.199833e+00	2.476913e-04	1.199824e+00	1.199824e+00	2.476961e-04	1.199826e+00	1.199826e+00	2.229521e-04	2.229521e-04	2.229530e-04	
135	1.190000e-09	0.000000e+00	1.199834e+00	2.352818e-04	1.199833e+00	2.476430e-04	1.199823e+00	1.199823e+00	2.476441e-04	1.199822e+00	1.199822e+00	2.229482e-04	2.229482e-04	2.229442e-04	
136	1.200000e-09	0.000000e+00	1.199834e+00	2.352847e-04	1.199833e+00	2.476909e-04	1.199824e+00	1.199824e+00	2.476954e-04	1.199825e+00	1.199825e+00	2.229520e-04	2.229520e-04	2.229528e-04	
137	1.210000e-09	0.000000e+00	1.199834e+00	2.352818e-04	1.199833e+00	2.476435e-04	1.199823e+00	1.199823e+00	2.476448e-04	1.199822e+00	1.199822e+00	2.229483e-04	2.229483e-04	2.229445e-04	
138	1.220000e-09	0.000000e+00	1.199834e+00	2.352847e-04	1.199833e+00	2.476904e-04	1.199824e+00	1.199824e+00	2.476947e-04	1.199825e+00	1.199825e+00	2.229520e-04	2.229520e-04	2.229526e-04	
139	1.230000e-09	0.000000e+00	1.199834e+00	2.352817e-04	1.199833e+00	2.476439e-04	1.199823e+00	1.199823e+00	2.476455e-04	1.199822e+00	1.199822e+00	2.229484e-04	2.229484e-04	2.229447e-04	
140	1.240000e-09	0.000000e+00	1.199834e+00	2.352848e-04	1.199833e+00	2.476900e-04	1.199824e+00	1.199824e+00	2.476940e-04	1.199825e+00	1.199825e+00	2.229519e-04	2.229519e-04	2.229525e-04	
141	1.250000e-09	0.000000e+00	1.199834e+00	2.352817e-04	1.199833e+00	2.476444e-04	1.199823e+00	1.199823e+00	2.476462e-04	1.199822e+00	1.199822e+00	2.229485e-04	2.229485e-04	2.229449e-04	
142	1.260000e-09	0.000000e+00	1.199834e+00	2.352848e-04	1.199833e+00	2.476895e-04	1.199824e+00	1.199824e+00	2.476934e-04	1.199825e+00	1.199825e+00	2.229518e-04	2.229518e-04	2.229523e-04	
143	1.270000e-09	0.000000e+00	1.199834e+00	2.352817e-04	1.199833e+00	2.476449e-04	1.199823e+00	1.199823e+00	2.476468e-04	1.199822e+00	1.199822e+00	2.229486e-04	2.229486e-04	2.229451e-04	
144	1.280000e-09	0.000000e+00	1.199834e+00	2.352849e-04	1.199833e+00	2.476890e-04	1.199824e+00	1.199824e+00	2.476927e-04	1.199825e+00	1.199825e+00	2.229517e-04	2.229517e-04	2.229522e-04	
145	1.290000e-09	0.000000e+00	1.199834e+00	2.352816e-04	1.199833e+00	2.476454e-04	1.199823e+00	1.199823e+00	2.476475e-04	1.199822e+00	1.199822e+00	2.229486e-04	2.229486e-04	2.229452e-04	
146	1.300000e-09	0.000000e+00	1.199834e+00	2.352849e-04	1.199833e+00	2.476885e-04	1.199824e+00	1.199824e+00	2.476921e-04	1.199825e+00	1.199825e+00	2.229517e-04	2.229517e-04	2.229520e-04	
147	1.310000e-09	0.000000e+00	1.199834e+00	2.352816e-04	1.199833e+00	2.476459e-04	1.199823e+00	1.199823e+00	2.476480e-04	1.199822e+00	1.199822e+00	2.229487e-04	2.229487e-04	2.229454e-04	
148	1.320000e-09	0.000000e+00	1.199834e+00	2.352849e-04	1.199833e+00	2.476881e-04	1.199824e+00	1.199824e+00	2.476916e-04	1.199825e+00	1.199825e+00	2.229516e-04	2.229516e-04	2.229519e-04	
149	1.330000e-09	0.000000e+00	1.199834e+00	2.352816e-04	1.199833e+00	2.476463e-04	1.199823e+00	1.199823e+00	2.476486e-04	1.199823e+00	1.199823e+00	2.229488e-04	2.229488e-04	2.229456e-04	
150	1.340000e-09	0.000000e+00	1.199834e+00	2.352850e-04	1.199833e+00	2.476876e-04	1.199824e+00	1.199824e+00	2.476910e-04	1.199825e+00	1.199825e+00	2.229516e-04	2.229516e-04	2.229518e-04	
151	1.350000e-09	0.000000e+00	1.199834e+00	2.352815e-04	1.199833e+00	2.476468e-04	1.199823e+00	1.199823e+00	2.476491e-04	1.199823e+00	1.199823e+00	2.229488e-04	2.229488e-04	2.229457e-04	
152	1.360000e-09	0.000000e+00	1.199834e+00	2.352850e-04	1.199833e+00	2.476872e-04	1.199824e+00	1.199824e+00	2.476905e-04	1.199825e+00	1.199825e+00	2.229515e-04	2.229515e-04	2.229517e-04	
153	1.370000e-09	0.000000e+00	1.199834e+00	2.352815e-04	1.199833e+00	2.476472e-04	1.199823e+00	1.199823e+00	2.476496e-04	1.199823e+00	1.199823e+00	2.229489e-04	2.229489e-04	2.229458e-04	
154	1.380000e-09	0.000000e+00	1.199834e+00	2.352850e-04	1.199833e+00	2.476867e-04	1.199824e+00	1.199824e+00	2.476900e-04	1.199825e+00	1.199825e+00	2.229515e-04	2.229515e-04	2.229516e-04	
155	1.390000e-09	0.000000e+00	1.199834e+00	2.352815e-04	1.199833e+00	2.476477e-04	1.199823e+00	1.199823e+00	2.476501e-04	1.199823e+00	1.199823e+00	2.229489e-04	2.229489e-04	2.229460e-04	
156	1.400000e-09	0.000000e+00	1.199834e+00	2.352850e-04	1.199833e+00	2.476863e-04	1.199824e+00	1.199824e+00	2.476896e-04	1.199824e+00	1.199824e+00	2.229514e-04	2.229514e-04	2.229515e-04	
157	1.410000e-09	0.000000e+00	1.199834e+00	2.352814e-04	1.199833e+00	2.476481e-04	1.199823e+00	1.199823e+00	2.476506e-04	1.199823e+00	1.199823e+00	2.229490e-04	2.229490e-04	2.229461e-04	
158	1.420000e-09	0.000000e+00	1.199834e+00	2.352851e-04	1.199833e+00	2.476859e-04	1.199824e+00	1.199824e+00	2.476891e-04	1.199824e+00	1.199824e+00	2.229514e-04	2.229514e-04	2.229514e-04	
159	1.430000e-09	0.000000e+00	1.199834e+00	2.352814e-04	1.199833e+00	2.476485e-04	1.199823e+00	1.199823e+00	2.476510e-04	1.199823e+00	1.199823e+00	2.229490e-04	2.229490e-04	2.229462e-04	
160	1.440000e-09	0.000000e+00	1.199834e+00	2.352851e-04	1.199833e+00	2.476855e-04	1.199824e+00	1.199824e+00	2.476887e-04	1.199824e+00	1.199824e+00	2.229513e-04	2.229513e-04	2.229513e-04	
161	1.450000e-09	0.000000e+00	1.199834e+00	2.352814e-04	1.199833e+00	2.476489e-04	1.199823e+00	1.199823e+00	2.476514e-04	1.199823e+00	1.199823e+00	2.229491e-04	2.229491e-04	2.229463e-04	
162	1.460000e-09	0.000000e+00	1.199834e+00	2.352851e-04	1.199833e+00	2.476852e-04	1.199824e+00	1.199824e+00	2.476883e-04	1.199824e+00	1.199824e+00	2.229513e-04	2.229513e-04	2.229512e-04	
163	1.470000e-09	0.000000e+00	1.199834e+00	2.352814e-04	1.199833e+00	2.476492e-04	1.199823e+00	1.199823e+00	2.476518e-04	1.199823e+00	1.199823e+00	2.229491e-04	2.229491e-04	2.229464e-04	
164	1.480000e-09	0.000000e+00	1.199834e+00	2.352851e-04	1.199833e+00	2.476848e-04	1.199824e+00	1.199824e+00	2.476880e-04	1.199824e+00	1.199824e+00	2.229513e-04	2.229513e-04	2.229512e-04	
165	1.490000e-09	0.000000e+00	1.199834e+00	2.352814e-04	1.199833e+00	2.476496e-04	1.199823e+00	1.199823e+00	2.476522e-04	1.199823e+00	1.199823e+00	2.229492e-04	2.229492e-04	2.229466e-04	
166	1.500000e-09	0.000000e+00	1.199834e+00	2.352851e-04	1.199833e+00	2.476845e-04	1.199824e+00	1.199824e+00	2.476876e-04	1.199824e+00	1.199824e+00	2.229512e-04	2.229512e-04	2.229511e-04	
167	1.510000e-09	0.000000e+00	1.199834e+00	2.352814e-04	1.199833e+00	2.476499e-04	1.199823e+00	1.199823e+00	2.476525e-04	1.199823e+00	1.199823e+00	2.229492e-04	2.229492e-04	2.229467e-04	
168	1.520000e-09	0.000000e+00	1.199834e+00	2.352851e-04	1.199833e+00	2.476842e-04	1.199824e+00	1.199824e+00	2.476873e-04	1.199824e+00	1.199824e+00	2.229512e-04	2.229512e-04	2.229510e-04	
169	1.530000e-09	0.000000e+00	1.199834e+00	2.352814e-04	1.199833e+00	2.476502e-04	1.199823e+00	1.199823e+00	2.476529e-04	1.199823e+00	1.199823e+00	2.229493e-04	2.229493e-04	2.229467e-04	
170	1.540000e-09	0.000000e+00	1.199834e+00	2.352851e-04	1.199833e+00	2.476839e-04	1.199824e+00	1.199824e+00	2.476870e-04	1.199824e+00	1.199824e+00	2.229512e-04	2.229512e-04	2.229510e-04	
171	1.550000e-09	0.000000e+00	1.199834e+00	2.352814e-04	1.199833e+00	2.476505e-04	1.199823e+00	1.199823e+00	2.476532e-04	1.199823e+00	1.199823e+00	2.229493e-04	2.229493e-04	2.229468e-04	
172	1.560000e-09	0.000000e+00	1.199834e+00	2.352851e-04	1.199833e+00	2.476836e-04	1.199824e+00	1.199824e+00	2.476867e-04	1.199824e+00	1.199824e+00	2.229512e-04	2.229512e-04	2.229509e-04	
173	1.570000e-09	0.000000e+00	1.199834e+00	2.352814e-04	1.199833e+00	2.476508e-04	1.199823e+00	1.199823e+00	2.476535e-04	1.199823e+00	1.199823e+00	2.229493e-04	2.229493e-04	2.229469e-04	
174	1.580000e-09	0.000000e+00	1.199834e+00	2.352852e-04	1.199833e+00	2.476833e-04	1.199824e+00	1.199824e+00	2.476864e-04	1.199824e+00	1.199824e+00	2.229511e-04	2.229511e-04	2.229508e-04	
175	1.590000e-09	0.000000e+00	1.199834e+00	2.352814e-04	1.199833e+00	2.476511e-04	1.199823e+00	1.199823e+00	2.476538e-04	1.199823e+00	1.199823e+00	2.229494e-04	2.229494e-04	2.229470e-04	
176	1.600000e-09	0.000000e+00	1.199834e+00	2.352852e-04	1.199833e+00	2.476831e-04	1.199824e+00	1.199824e+00	2.476861e-04	1.199824e+00	1.199824e+00	2.229511e-04	2.229511e-04	2.229508e-04	
177	1.610000e-09	0.000000e+00	1.199834e+00	2.352814e-04	1.199833e+00	2.476513e-04	1.199823e+00	1.199823e+00	2.476540e-04	1.199823e+00	1.199823e+00	2.229494e-04	2.229494e-04	2.229471e-04	
178	1.620000e-09	0.000000e+00	1.199834e+00	2.352851e-04	1.199833e+00	2.476828e-04	1.199824e+00	1.199824e+00	2.476858e-04	1.199824e+00	1.199824e+00	2.229511e-04	2.229511e-04	2.229507e-04	
179	1.630000e-09	0.000000e+00	1.199834e+00	2.352814e-04	1.199833e+00	2.476516e-04	1.199823e+00	1.199823e+00	2.476543e-04	1.199823e+00	1.199823e+00	2.229494e-04	2.229494e-04	2.229472e-04	
180	1.640000e-09	0.000000e+00	1.199834e+00	2.352851e-04	1.199833e+00	2.476826e-04	1.199824e+00	1.199824e+00	2.476856e-04	1.199824e+00	1.199824e+00	2.229511e-04	2.229511e-04	2.229507e-04	
181	1.650000e-09	0.000000e+00	1.199834e+00	2.352814e-04	1.199833e+00	2.476518e-04	1.199823e+00	1.199823e+00	2.476545e-04	1.199823e+00	1.199823e+00	2.229495e-04	2.229495e-04	2.229472e-04	
182	1.660000e-09	0.000000e+00	1.199834e+00	2.352851e-04	1.199833e+00	2.476823e-04	1.199824e+00	1.199824e+00	2.476854e-04	1.199824e+00	1.199824e+00	2.229510e-04	2.229510e-04	2.229506e-04	
183	1.670000e-09	0.000000e+00	1.199834e+00	2.352814e-04	1.199833e+00	2.476520e-04	1.199823e+00	1.199823e+00	2.476548e-04	1.199823e+00	1.199823e+00	2.229495e-04	2.229495e-04	2.229473e-04	
184	1.680000e-09	0.000000e+00	1.199834e+00	2.352851e-04	1.199833e+00	2.476821e-04	1.199824e+00	1.199824e+00	2.476851e-04	1.199824e+00	1.199824e+00	2.229510e-04	2.229510e-04	2.229506e-04	
185	1.690000e-09	0.000000e+00	1.199834e+00	2.352814e-04	1.199833e+00	2.476523e-04	1.199823e+00	1.199823e+00	2.476550e-04	1.199823e+00	1.199823e+00	2.229495e-04	2.229495e-04	2.229474e-04	
186	1.700000e-09	0.000000e+00	1.199834e+00	2.352851e-04	1.199833e+00	2.476819e-04	1.199824e+00	1.199824e+00	2.476849e-04	1.199824e+00	1.199824e+00	2.229510e-04	2.229510e-04	2.229506e-04	
187	1.710000e-09	0.000000e+00	1.199834e+00	2.352814e-04	1.199833e+00	2.476525e-04	1.199823e+00	1.199823e+00	2.476552e-04	1.199823e+00	1.199823e+00	2.229495e-04	2.229495e-04	2.229474e-04	
188	1.720000e-09	0.000000e+00	1.199834e+00	2.352851e-04	1.199833e+00	2.476817e-04	1.199824e+00	1.199824e+00	2.476847e-04	1.199824e+00	1.199824e+00	2.229510e-04	2.229510e-04	2.229505e-04	
189	1.730000e-09	0.000000e+00	1.199834e+00	2.352814e-04	1.199833e+00	2.476526e-04	1.199823e+00	1.199823e+00	2.476554e-04	1.199823e+00	1.199823e+00	2.229496e-04	2.229496e-04	2.229475e-04	
190	1.740000e-09	0.000000e+00	1.199834e+00	2.352851e-04	1.199833e+00	2.476816e-04	1.199824e+00	1.199824e+00	2.476846e-04	1.199824e+00	1.199824e+00	2.229510e-04	2.229510e-04	2.229505e-04	
191	1.750000e-09	0.000000e+00	1.199834e+00	2.352814e-04	1.199833e+00	2.476528e-04	1.199823e+00	1.199823e+00	2.476556e-04	1.199823e+00	1.199823e+00	2.229496e-04	2.229496e-04	2.229476e-04	
192	1.760000e-09	0.000000e+00	1.199834e+00	2.352851e-04	1.199833e+00	2.476814e-04	1.199824e+00	1.199824e+00	2.476844e-04	1.199824e+00	1.199824e+00	2.229509e-04	2.229509e-04	2.229505e-04	
193	1.770000e-09	0.000000e+00	1.199834e+00	2.352814e-04	1.199833e+00	2.476530e-04	1.199823e+00	1.199823e+00	2.476557e-04	1.199823e+00	1.199823e+00	2.229496e-04	2.229496e-04	2.229476e-04	
194	1.780000e-09	0.000000e+00	1.199834e+00	2.352851e-04	1.199833e+00	2.476812e-04	1.199824e+00	1.199824e+00	2.476842e-04	1.199824e+00	1.199824e+00	2.229509e-04	2.229509e-04	2.229504e-04	
195	1.790000e-09	0.000000e+00	1.199834e+00	2.352814e-04	1.199833e+00	2.476532e-04	1.199823e+00	1.199823e+00	2.476559e-04	1.199823e+00	1.199823e+00	2.229496e-04	2.229496e-04	2.229477e-04	
196	1.800000e-09	0.000000e+00	1.199834e+00	2.352851e-04	1.199833e+00	2.476811e-04	1.199824e+00	1.199824e+00	2.476840e-04	1.199824e+00	1.199824e+00	2.229509e-04	2.229509e-04	2.229504e-04	
197	1.810000e-09	0.000000e+00	1.199834e+00	2.352814e-04	1.199833e+00	2.476533e-04	1.199823e+00	1.199823e+00	2.476561e-04	1.199823e+00	1.199823e+00	2.229497e-04	2.229497e-04	2.229477e-04	
198	1.820000e-09	0.000000e+00	1.199834e+00	2.352851e-04	1.199833e+00	2.476809e-04	1.199824e+00	1.199824e+00	2.476839e-04	1.199824e+00	1.199824e+00	2.229509e-04	2.229509e-04	2.229504e-04	
199	1.830000e-09	0.000000e+00	1.199834e+00	2.352814e-04	1.199833e+00	2.476535e-04	1.199823e+00	1.199823e+00	2.476562e-04	1.199823e+00	1.199823e+00	2.229497e-04	2.229497e-04	2.229478e-04	
200	1.840000e-09	0.000000e+00	1.199834e+00	2.352850e-04	1.199833e+00	2.476808e-04	1.199824e+00	1.199824e+00	2.476837e-04	1.199824e+00	1.199824e+00	2.229509e-04	2.229509e-04	2.229503e-04	
201	1.850000e-09	0.000000e+00	1.199834e+00	2.352815e-04	1.199833e+00	2.476536e-04	1.199823e+00	1.199823e+00	2.476564e-04	1.199823e+00	1.199823e+00	2.229497e-04	2.229497e-04	2.229478e-04	
202	1.860000e-09	0.000000e+00	1.199834e+00	2.352850e-04	1.199833e+00	2.476806e-04	1.199824e+00	1.199824e+00	2.476836e-04	1.199824e+00	1.199824e+00	2.229509e-04	2.229509e-04	2.229503e-04	
203	1.870000e-09	0.000000e+00	1.199834e+00	2.352815e-04	1.199833e+00	2.476537e-04	1.199823e+00	1.199823e+00	2.476565e-04	1.199823e+00	1.199823e+00	2.229497e-04	2.229497e-04	2.229479e-04	
204	1.880000e-09	0.000000e+00	1.199834e+00	2.352850e-04	1.199833e+00	2.476805e-04	1.199824e+00	1.199824e+00	2.476835e-04	1.199824e+00	1.199824e+00	2.229509e-04	2.229509e-04	2.229503e-04	
205	1.890000e-09	0.000000e+00	1.199834e+00	2.352815e-04	1.199833e+00	2.476539e-04	1.199823e+00	1.199823e+00	2.476566e-04	1.199823e+00	1.199823e+00	2.229497e-04	2.229497e-04	2.229479e-04	
206	1.900000e-09	0.000000e+00	1.199834e+00	2.352850e-04	1.199833e+00	2.476804e-04	1.199824e+00	1.199824e+00	2.476834e-04	1.199824e+00	1.199824e+00	2.229508e-04	2.229508e-04	2.229503e-04	
207	1.910000e-09	0.000000e+00	1.199834e+00	2.352815e-04	1.199833e+00	2.476540e-04	1.199823e+00	1.199823e+00	2.476568e-04	1.199823e+00	1.199823e+00	2.229498e-04	2.229498e-04	2.229480e-04	
208	1.920000e-09	0.000000e+00	1.199834e+00	2.352850e-04	1.199833e+00	2.476803e-04	1.199824e+00	1.199824e+00	2.476832e-04	1.199824e+00	1.199824e+00	2.229508e-04	2.229508e-04	2.229503e-04	
209	1.930000e-09	0.000000e+00	1.199834e+00	2.352815e-04	1.199833e+00	2.476541e-04	1.199823e+00	1.199823e+00	2.476569e-04	1.199823e+00	1.199823e+00	2.229498e-04	2.229498e-04	2.229480e-04	
210	1.940000e-09	0.000000e+00	1.199834e+00	2.352850e-04	1.199833e+00	2.476802e-04	1.199824e+00	1.199824e+00	2.476831e-04	1.199824e+00	1.199824e+00	2.229508e-04	2.229508e-04	2.229502e-04	
211	1.950000e-09	0.000000e+00	1.199834e+00	2.352815e-04	1.199833e+00	2.476542e-04	1.199823e+00	1.199823e+00	2.476570e-04	1.199823e+00	1.199823e+00	2.229498e-04	2.229498e-04	2.229481e-04	
212	1.960000e-09	0.000000e+00	1.199834e+00	2.352849e-04	1.199833e+00	2.476801e-04	1.199824e+00	1.199824e+00	2.476830e-04	1.199824e+00	1.199824e+00	2.229508e-04	2.229508e-04	2.229502e-04	
213	1.970000e-09	0.000000e+00	1.199834e+00	2.352816e-04	1.199833e+00	2.476543e-04	1.199823e+00	1.199823e+00	2.476571e-04	1.199823e+00	1.199823e+00	2.229498e-04	2.229498e-04	2.229481e-04	
214	1.980000e-09	0.000000e+00	1.199834e+00	2.352849e-04	1.199833e+00	2.476800e-04	1.199824e+00	1.199824e+00	2.476829e-04	1.199824e+00	1.199824e+00	2.229508e-04	2.229508e-04	2.229502e-04	
215	1.990000e-09	0.000000e+00	1.199834e+00	2.352816e-04	1.199833e+00	2.476544e-04	1.199823e+00	1.199823e+00	2.476572e-04	1.199823e+00	1.199823e+00	2.229498e-04	2.229498e-04	2.229481e-04	
216	2.000000e-09	0.000000e+00	1.199834e+00	2.352849e-04	1.199833e+00	2.476799e-04	1.199824e+00	1.199824e+00	2.476828e-04	1.199824e+00	1.199824e+00	2.229508e-04	2.229508e-04	2.229502e-04	

                                                                                                                * spice from s1s
                                                                                                                Transient Analysis  Sat Feb  7 10:35:14  2009
------------------------------------------------------------------------------------------------------------------------------------------------------------------------------------------------------------------------------------------------
Index   time            v(n7)           
------------------------------------------------------------------------------------------------------------------------------------------------------------------------------------------------------------------------------------------------
0	0.000000e+00	1.200000e+00	
1	1.000000e-13	1.160817e+00	
2	1.716167e-13	1.134036e+00	
3	3.148502e-13	1.082937e+00	
4	6.013171e-13	9.943735e-01	
5	1.174251e-12	8.616878e-01	
6	1.979908e-12	7.482238e-01	
7	3.098672e-12	6.763322e-01	
8	4.640749e-12	6.579276e-01	
9	6.755469e-12	6.898514e-01	
10	9.738002e-12	7.604009e-01	
11	1.366754e-11	8.488277e-01	
12	1.911446e-11	9.456111e-01	
13	2.613861e-11	1.033347e+00	
14	3.432437e-11	1.098908e+00	
15	4.432437e-11	1.145664e+00	
16	5.432437e-11	1.170838e+00	
17	6.432437e-11	1.184330e+00	
18	7.432437e-11	1.191546e+00	
19	8.432437e-11	1.195402e+00	
20	9.432437e-11	1.197463e+00	
21	1.043244e-10	1.198565e+00	
22	1.143244e-10	1.199155e+00	
23	1.243244e-10	1.199472e+00	
24	1.343244e-10	1.199642e+00	
25	1.443244e-10	1.199734e+00	
26	1.543244e-10	1.199783e+00	
27	1.643244e-10	1.199810e+00	
28	1.743244e-10	1.199825e+00	
29	1.843244e-10	1.199833e+00	
30	1.943244e-10	1.199837e+00	
31	2.000000e-10	1.199838e+00	
32	2.010000e-10	1.199839e+00	
33	2.030000e-10	1.199839e+00	
34	2.070000e-10	1.199840e+00	
35	2.150000e-10	1.199841e+00	
36	2.250000e-10	1.199841e+00	
37	2.350000e-10	1.199842e+00	
38	2.450000e-10	1.199842e+00	
39	2.550000e-10	1.199842e+00	
40	2.650000e-10	1.199842e+00	
41	2.750000e-10	1.199842e+00	
42	2.850000e-10	1.199842e+00	
43	2.950000e-10	1.199842e+00	
44	3.050000e-10	1.199842e+00	
45	3.150000e-10	1.199842e+00	
46	3.250000e-10	1.199842e+00	
47	3.260000e-10	1.199842e+00	
48	3.280000e-10	1.199842e+00	
49	3.320000e-10	1.199842e+00	
50	3.400000e-10	1.199840e+00	
51	3.500000e-10	1.199833e+00	
52	3.600000e-10	1.199891e+00	
53	3.700000e-10	1.200295e+00	
54	3.800000e-10	1.201216e+00	
55	3.900000e-10	1.195490e+00	
56	4.000000e-10	1.154333e+00	
57	4.100000e-10	1.029457e+00	
58	4.200000e-10	8.012804e-01	
59	4.300000e-10	5.255378e-01	
60	4.400000e-10	2.967677e-01	
61	4.500000e-10	1.565512e-01	
62	4.600000e-10	8.130225e-02	
63	4.700000e-10	4.172533e-02	
64	4.800000e-10	2.143691e-02	
65	4.900000e-10	1.105733e-02	
66	5.000000e-10	5.767160e-03	
67	5.100000e-10	3.066827e-03	
68	5.200000e-10	1.691599e-03	
69	5.300000e-10	9.803368e-04	
70	5.400000e-10	6.212810e-04	
71	5.500000e-10	4.282161e-04	
72	5.600000e-10	3.347187e-04	
73	5.700000e-10	2.794957e-04	
74	5.800000e-10	2.558282e-04	
75	5.900000e-10	2.386130e-04	
76	6.000000e-10	2.332753e-04	
77	6.100000e-10	2.271764e-04	
78	6.200000e-10	2.264938e-04	
79	6.300000e-10	2.239605e-04	
80	6.400000e-10	2.243126e-04	
81	6.500000e-10	2.230812e-04	
82	6.600000e-10	2.235470e-04	
83	6.700000e-10	2.228686e-04	
84	6.800000e-10	2.232478e-04	
85	6.900000e-10	2.228402e-04	
86	7.000000e-10	2.231162e-04	
87	7.100000e-10	2.228563e-04	
88	7.200000e-10	2.230512e-04	
89	7.300000e-10	2.228781e-04	
90	7.400000e-10	2.230159e-04	
91	7.500000e-10	2.228960e-04	
92	7.600000e-10	2.229952e-04	
93	7.700000e-10	2.229092e-04	
94	7.800000e-10	2.229824e-04	
95	7.900000e-10	2.229184e-04	
96	8.000000e-10	2.229742e-04	
97	8.100000e-10	2.229248e-04	
98	8.200000e-10	2.229687e-04	
99	8.300000e-10	2.229293e-04	
100	8.400000e-10	2.229650e-04	
101	8.500000e-10	2.229325e-04	
102	8.600000e-10	2.229624e-04	
103	8.700000e-10	2.229347e-04	
104	8.800000e-10	2.229605e-04	
105	8.900000e-10	2.229364e-04	
106	9.000000e-10	2.229591e-04	
107	9.100000e-10	2.229377e-04	
108	9.200000e-10	2.229581e-04	
109	9.300000e-10	2.229387e-04	
110	9.400000e-10	2.229573e-04	
111	9.500000e-10	2.229396e-04	
112	9.600000e-10	2.229566e-04	
113	9.700000e-10	2.229402e-04	
114	9.800000e-10	2.229560e-04	
115	9.900000e-10	2.229408e-04	
116	1.000000e-09	2.229555e-04	
117	1.010000e-09	2.229413e-04	
118	1.020000e-09	2.229551e-04	
119	1.030000e-09	2.229418e-04	
120	1.040000e-09	2.229548e-04	
121	1.050000e-09	2.229422e-04	
122	1.060000e-09	2.229544e-04	
123	1.070000e-09	2.229426e-04	
124	1.080000e-09	2.229541e-04	
125	1.090000e-09	2.229429e-04	
126	1.100000e-09	2.229539e-04	
127	1.110000e-09	2.229432e-04	
128	1.120000e-09	2.229536e-04	
129	1.130000e-09	2.229435e-04	
130	1.140000e-09	2.229534e-04	
131	1.150000e-09	2.229438e-04	
132	1.160000e-09	2.229532e-04	
133	1.170000e-09	2.229440e-04	
134	1.180000e-09	2.229530e-04	
135	1.190000e-09	2.229442e-04	
136	1.200000e-09	2.229528e-04	
137	1.210000e-09	2.229445e-04	
138	1.220000e-09	2.229526e-04	
139	1.230000e-09	2.229447e-04	
140	1.240000e-09	2.229525e-04	
141	1.250000e-09	2.229449e-04	
142	1.260000e-09	2.229523e-04	
143	1.270000e-09	2.229451e-04	
144	1.280000e-09	2.229522e-04	
145	1.290000e-09	2.229452e-04	
146	1.300000e-09	2.229520e-04	
147	1.310000e-09	2.229454e-04	
148	1.320000e-09	2.229519e-04	
149	1.330000e-09	2.229456e-04	
150	1.340000e-09	2.229518e-04	
151	1.350000e-09	2.229457e-04	
152	1.360000e-09	2.229517e-04	
153	1.370000e-09	2.229458e-04	
154	1.380000e-09	2.229516e-04	
155	1.390000e-09	2.229460e-04	
156	1.400000e-09	2.229515e-04	
157	1.410000e-09	2.229461e-04	
158	1.420000e-09	2.229514e-04	
159	1.430000e-09	2.229462e-04	
160	1.440000e-09	2.229513e-04	
161	1.450000e-09	2.229463e-04	
162	1.460000e-09	2.229512e-04	
163	1.470000e-09	2.229464e-04	
164	1.480000e-09	2.229512e-04	
165	1.490000e-09	2.229466e-04	
166	1.500000e-09	2.229511e-04	
167	1.510000e-09	2.229467e-04	
168	1.520000e-09	2.229510e-04	
169	1.530000e-09	2.229467e-04	
170	1.540000e-09	2.229510e-04	
171	1.550000e-09	2.229468e-04	
172	1.560000e-09	2.229509e-04	
173	1.570000e-09	2.229469e-04	
174	1.580000e-09	2.229508e-04	
175	1.590000e-09	2.229470e-04	
176	1.600000e-09	2.229508e-04	
177	1.610000e-09	2.229471e-04	
178	1.620000e-09	2.229507e-04	
179	1.630000e-09	2.229472e-04	
180	1.640000e-09	2.229507e-04	
181	1.650000e-09	2.229472e-04	
182	1.660000e-09	2.229506e-04	
183	1.670000e-09	2.229473e-04	
184	1.680000e-09	2.229506e-04	
185	1.690000e-09	2.229474e-04	
186	1.700000e-09	2.229506e-04	
187	1.710000e-09	2.229474e-04	
188	1.720000e-09	2.229505e-04	
189	1.730000e-09	2.229475e-04	
190	1.740000e-09	2.229505e-04	
191	1.750000e-09	2.229476e-04	
192	1.760000e-09	2.229505e-04	
193	1.770000e-09	2.229476e-04	
194	1.780000e-09	2.229504e-04	
195	1.790000e-09	2.229477e-04	
196	1.800000e-09	2.229504e-04	
197	1.810000e-09	2.229477e-04	
198	1.820000e-09	2.229504e-04	
199	1.830000e-09	2.229478e-04	
200	1.840000e-09	2.229503e-04	
201	1.850000e-09	2.229478e-04	
202	1.860000e-09	2.229503e-04	
203	1.870000e-09	2.229479e-04	
204	1.880000e-09	2.229503e-04	
205	1.890000e-09	2.229479e-04	
206	1.900000e-09	2.229503e-04	
207	1.910000e-09	2.229480e-04	
208	1.920000e-09	2.229503e-04	
209	1.930000e-09	2.229480e-04	
210	1.940000e-09	2.229502e-04	
211	1.950000e-09	2.229481e-04	
212	1.960000e-09	2.229502e-04	
213	1.970000e-09	2.229481e-04	
214	1.980000e-09	2.229502e-04	
215	1.990000e-09	2.229481e-04	
216	2.000000e-09	2.229502e-04	

CPU time since last call: 0.192 seconds.

Total CPU time: 0.192 seconds.

Total DRAM available = 3034.875000 MB.
DRAM currently available = 2331.867188 MB.
Total ngspice program size = 7.365234 MB.
Resident set size = 3.030273 MB.
Shared ngspice pages = 464.000 kB.
Text (code) pages = 1.378906 MB.
Stack = 0 bytes.
Library pages = 5.532227 MB.

