
Circuit: * spice from s2s

Doing analysis at TEMP = 75.000000 and TNOM = 27.000000


Initial Transient Solution
--------------------------

Node                                   Voltage
----                                   -------
n0                                         1.2
n16                                        1.2
n17                                          0
n18                                          0
n19                                        1.2
n20                                        1.2
n21                                          0
n22                                          0
n23                                        1.2
n24                                        1.2
n25                                          0
n26                                          0
n27                                        1.2
n28                                        1.2
n29                                          0
n1                                           0
n34                                          0
n35                                        1.2
n36                                        1.2
n37                                          0
n50                                          0
n51                                        1.2
n52                                        1.2
n53                                          0
n3                                           0
n32                                          0
n33                                        1.2
n38                                        1.2
n39                                          0
n48                                          0
n49                                        1.2
n54                                        1.2
n55                                          0
n30                                          0
n31                                        1.2
n4                                           0
n7                                         1.2
n40                                        1.2
n41                                          0
n46                                          0
n47                                        1.2
n42                                        1.2
n43                                          0
n44                                          0
n45                                        1.2
n8                                         1.2
n58                                        1.2
n59                                          0
n56                                        1.2
n57                                          0
n10                                          0
n13                                        1.2
n60                                        1.2
n61                                          0
n62                                        1.2
n63                                          0
n2                                           0
n5                                           0
n6                                           0
n9                                           0
n11                                          0
n12                                          0
n14                                          0
n15                                          0
nseg_node_64                               1.2
nseg_node_65                               1.2
nseg_node_66                               1.2
nseg_node_67                               1.2
nseg_node_68                               1.2
nseg_node_69                               1.2
nseg_node_70                               1.2
nseg_node_71                               1.2
nseg_node_72                               1.2
nseg_node_73                               1.2
nseg_node_74                               1.2
nseg_node_75                               1.2
nseg_node_76                               1.2
nseg_node_77                               1.2
nseg_node_78                               1.2
nseg_node_79                               1.2
nseg_node_80                               1.2
nseg_node_81                               1.2
nseg_node_82                               1.2
nseg_node_83                               1.2
nseg_node_84                               1.2
nseg_node_85                               1.2
nseg_node_86                               1.2
nseg_node_87                               1.2
nseg_node_88                               1.2
nseg_node_89                               1.2
nseg_node_90                               1.2
gin                                          0
vdd                                        1.2
vdt#branch                                   0
vdd#branch                        -0.000175141


No. of Data Rows : 228

                                                                                                                * spice from s2s
                                                                                                                Transient Analysis  Sat Feb  7 10:40:24  2009
------------------------------------------------------------------------------------------------------------------------------------------------------------------------------------------------------------------------------------------------
Index   time            v(gin)          v(n16)          v(n18)          v(n20)          v(n22)          v(n24)          v(n26)          v(n28)          v(n34)          v(n36)          v(n50)          v(n52)          v(n32)          
------------------------------------------------------------------------------------------------------------------------------------------------------------------------------------------------------------------------------------------------
0	0.000000e+00	0.000000e+00	1.200000e+00	0.000000e+00	1.200000e+00	0.000000e+00	1.200000e+00	0.000000e+00	1.200000e+00	0.000000e+00	1.200000e+00	0.000000e+00	1.200000e+00	0.000000e+00	
1	1.000000e-13	0.000000e+00	1.201331e+00	7.208820e-02	1.201380e+00	7.208823e-02	1.201380e+00	7.208911e-02	1.202582e+00	1.194660e-01	1.201417e+00	7.400154e-02	1.201931e+00	1.337455e-03	
2	1.168182e-13	0.000000e+00	1.201588e+00	8.374195e-02	1.201646e+00	8.374199e-02	1.201646e+00	8.374304e-02	1.203074e+00	1.382446e-01	1.201691e+00	8.605742e-02	1.202302e+00	1.605297e-03	
3	1.504547e-13	0.000000e+00	1.202156e+00	1.061485e-01	1.202237e+00	1.061485e-01	1.202237e+00	1.061500e-01	1.204154e+00	1.733446e-01	1.202300e+00	1.094201e-01	1.203120e+00	2.234791e-03	
4	2.177275e-13	0.000000e+00	1.203552e+00	1.459934e-01	1.203703e+00	1.459935e-01	1.203703e+00	1.459963e-01	1.206706e+00	2.305873e-01	1.203824e+00	1.519900e-01	1.205107e+00	4.112784e-03	
5	3.522733e-13	0.000000e+00	1.206859e+00	2.095069e-01	1.207254e+00	2.095073e-01	1.207254e+00	2.095155e-01	1.212318e+00	3.071521e-01	1.207587e+00	2.233743e-01	1.209753e+00	1.042337e-02	
6	6.213647e-13	0.000000e+00	1.213365e+00	2.921201e-01	1.214625e+00	2.921226e-01	1.214625e+00	2.921533e-01	1.221987e+00	3.748326e-01	1.215658e+00	3.269461e-01	1.218907e+00	3.055821e-02	
7	9.221938e-13	0.000000e+00	1.218587e+00	3.406173e-01	1.221176e+00	3.406265e-01	1.221176e+00	3.406924e-01	1.228122e+00	3.876905e-01	1.223146e+00	4.014743e-01	1.226550e+00	5.832492e-02	
8	1.348109e-12	0.000000e+00	1.221636e+00	3.699508e-01	1.226010e+00	3.699782e-01	1.226011e+00	3.700839e-01	1.229723e+00	3.755782e-01	1.229072e+00	4.648208e-01	1.231837e+00	9.487227e-02	
9	1.880760e-12	0.000000e+00	1.220791e+00	3.756483e-01	1.226347e+00	3.757052e-01	1.226348e+00	3.758193e-01	1.225918e+00	3.509571e-01	1.230274e+00	5.051319e-01	1.232071e+00	1.292009e-01	
10	2.684430e-12	0.000000e+00	1.216110e+00	3.606514e-01	1.220860e+00	3.607333e-01	1.220862e+00	3.607909e-01	1.217461e+00	3.168635e-01	1.225769e+00	5.277840e-01	1.226197e+00	1.603343e-01	
11	3.496810e-12	0.000000e+00	1.211253e+00	3.362934e-01	1.213128e+00	3.363515e-01	1.213128e+00	3.363341e-01	1.209768e+00	2.883351e-01	1.219106e+00	5.284059e-01	1.217710e+00	1.756238e-01	
12	4.603078e-12	0.000000e+00	1.206579e+00	3.015204e-01	1.203616e+00	3.014791e-01	1.203612e+00	3.014128e-01	1.201847e+00	2.568630e-01	1.211175e+00	5.142288e-01	1.205905e+00	1.835471e-01	
13	6.076190e-12	0.000000e+00	1.202885e+00	2.580135e-01	1.194172e+00	2.578123e-01	1.194164e+00	2.577576e-01	1.194553e+00	2.241650e-01	1.203651e+00	4.833999e-01	1.191163e+00	1.831726e-01	
14	8.383832e-12	0.000000e+00	1.199777e+00	2.000672e-01	1.185730e+00	1.997271e-01	1.185726e+00	1.997455e-01	1.188077e+00	1.863716e-01	1.196766e+00	4.270735e-01	1.171456e+00	1.727565e-01	
15	1.138079e-11	0.000000e+00	1.197791e+00	1.425156e-01	1.181993e+00	1.422331e-01	1.181999e+00	1.423139e-01	1.185001e+00	1.518396e-01	1.192489e+00	3.551845e-01	1.153417e+00	1.532852e-01	
16	1.568482e-11	0.000000e+00	1.196765e+00	8.667080e-02	1.182768e+00	8.663061e-02	1.182784e+00	8.669524e-02	1.185186e+00	1.171867e-01	1.190166e+00	2.672957e-01	1.142378e+00	1.246170e-01	
17	2.096257e-11	0.000000e+00	1.196899e+00	4.662997e-02	1.186667e+00	4.679581e-02	1.186684e+00	4.679617e-02	1.187801e+00	8.737635e-02	1.189890e+00	1.856403e-01	1.144720e+00	9.452830e-02	
18	2.844280e-11	0.000000e+00	1.197810e+00	1.884330e-02	1.192036e+00	1.908131e-02	1.192046e+00	1.903446e-02	1.191793e+00	5.816075e-02	1.191226e+00	1.090594e-01	1.157660e+00	6.317583e-02	
19	3.688375e-11	0.000000e+00	1.198758e+00	6.765069e-03	1.196031e+00	6.950510e-03	1.196033e+00	6.908965e-03	1.195147e+00	3.681252e-02	1.193352e+00	5.935999e-02	1.171659e+00	3.999002e-02	
20	4.688375e-11	0.000000e+00	1.199396e+00	2.057936e-03	1.198379e+00	2.159802e-03	1.198377e+00	2.144708e-03	1.197484e+00	2.137822e-02	1.195574e+00	2.856488e-02	1.183111e+00	2.322277e-02	
21	5.688375e-11	0.000000e+00	1.199673e+00	7.523751e-04	1.199314e+00	7.993975e-04	1.199312e+00	8.014520e-04	1.198666e+00	1.245541e-02	1.197185e+00	1.382626e-02	1.190171e+00	1.352382e-02	
22	6.688375e-11	0.000000e+00	1.199778e+00	3.852613e-04	1.199655e+00	4.048735e-04	1.199653e+00	4.120022e-04	1.199243e+00	7.302057e-03	1.198240e+00	6.752228e-03	1.194329e+00	7.919839e-03	
23	7.688375e-11	0.000000e+00	1.199816e+00	2.768746e-04	1.199775e+00	2.845400e-04	1.199774e+00	2.912775e-04	1.199527e+00	4.319999e-03	1.198895e+00	3.388120e-03	1.196728e+00	4.678888e-03	
24	8.688375e-11	0.000000e+00	1.199829e+00	2.463624e-04	1.199815e+00	2.492558e-04	1.199814e+00	2.540309e-04	1.199669e+00	2.601357e-03	1.199289e+00	1.748955e-03	1.198092e+00	2.809530e-03	
25	9.688375e-11	0.000000e+00	1.199834e+00	2.359615e-04	1.199829e+00	2.369903e-04	1.199828e+00	2.400675e-04	1.199742e+00	1.605433e-03	1.199520e+00	9.820487e-04	1.198859e+00	1.728097e-03	
26	1.068838e-10	0.000000e+00	1.199835e+00	2.337131e-04	1.199833e+00	2.341079e-04	1.199833e+00	2.359298e-04	1.199781e+00	1.033978e-03	1.199655e+00	5.892711e-04	1.199290e+00	1.106062e-03	
27	1.168838e-10	0.000000e+00	1.199836e+00	2.323052e-04	1.199834e+00	2.324192e-04	1.199834e+00	2.335051e-04	1.199802e+00	7.011559e-04	1.199732e+00	4.187909e-04	1.199528e+00	7.453152e-04	
28	1.268838e-10	0.000000e+00	1.199836e+00	2.324045e-04	1.199835e+00	2.324730e-04	1.199835e+00	2.330784e-04	1.199813e+00	5.120550e-04	1.199776e+00	3.166578e-04	1.199661e+00	5.389902e-04	
29	1.368838e-10	0.000000e+00	1.199836e+00	2.320338e-04	1.199835e+00	2.320352e-04	1.199835e+00	2.323974e-04	1.199820e+00	4.003344e-04	1.199801e+00	2.837991e-04	1.199734e+00	4.183889e-04	
30	1.468838e-10	0.000000e+00	1.199836e+00	2.322087e-04	1.199835e+00	2.322352e-04	1.199835e+00	2.324285e-04	1.199823e+00	3.383749e-04	1.199815e+00	2.517779e-04	1.199775e+00	3.503458e-04	
31	1.568838e-10	0.000000e+00	1.199836e+00	2.320601e-04	1.199835e+00	2.320503e-04	1.199835e+00	2.321722e-04	1.199826e+00	3.003865e-04	1.199823e+00	2.502179e-04	1.199797e+00	3.097367e-04	
32	1.668838e-10	0.000000e+00	1.199836e+00	2.321460e-04	1.199835e+00	2.321652e-04	1.199835e+00	2.322252e-04	1.199826e+00	2.805737e-04	1.199827e+00	2.364335e-04	1.199810e+00	2.876004e-04	
33	1.768838e-10	0.000000e+00	1.199836e+00	2.320975e-04	1.199835e+00	2.320886e-04	1.199835e+00	2.321313e-04	1.199827e+00	2.672369e-04	1.199830e+00	2.412512e-04	1.199816e+00	2.736671e-04	
34	1.868838e-10	0.000000e+00	1.199836e+00	2.321115e-04	1.199835e+00	2.321276e-04	1.199835e+00	2.321450e-04	1.199827e+00	2.613089e-04	1.199831e+00	2.330871e-04	1.199820e+00	2.667172e-04	
35	1.968838e-10	0.000000e+00	1.199836e+00	2.321242e-04	1.199835e+00	2.321175e-04	1.199835e+00	2.321335e-04	1.199828e+00	2.562807e-04	1.199832e+00	2.384769e-04	1.199822e+00	2.617173e-04	
36	2.000000e-10	0.000000e+00	1.199836e+00	2.320731e-04	1.199835e+00	2.320849e-04	1.199835e+00	2.320931e-04	1.199828e+00	2.562579e-04	1.199832e+00	2.334384e-04	1.199822e+00	2.613101e-04	
37	2.010000e-10	9.600000e-03	1.199942e+00	2.332910e-04	1.199835e+00	2.321267e-04	1.199835e+00	2.321359e-04	1.199828e+00	2.557347e-04	1.199832e+00	2.349834e-04	1.199822e+00	2.608697e-04	
38	2.030000e-10	2.880000e-02	1.200322e+00	2.390202e-04	1.199835e+00	2.321150e-04	1.199835e+00	2.321231e-04	1.199828e+00	2.551747e-04	1.199832e+00	2.356024e-04	1.199823e+00	2.603155e-04	
39	2.070000e-10	6.720000e-02	1.201381e+00	2.610076e-04	1.199836e+00	2.321277e-04	1.199835e+00	2.321248e-04	1.199828e+00	2.544842e-04	1.199833e+00	2.350529e-04	1.199823e+00	2.595276e-04	
40	2.150000e-10	1.440000e-01	1.202197e+00	2.672944e-04	1.199836e+00	2.321322e-04	1.199835e+00	2.321230e-04	1.199828e+00	2.532903e-04	1.199833e+00	2.352419e-04	1.199823e+00	2.582614e-04	
41	2.250000e-10	2.400000e-01	1.198149e+00	1.687750e-04	1.199833e+00	2.320760e-04	1.199835e+00	2.321213e-04	1.199828e+00	2.524765e-04	1.199833e+00	2.348229e-04	1.199824e+00	2.573492e-04	
42	2.350000e-10	3.360000e-01	1.182109e+00	-6.491712e-05	1.199829e+00	2.320218e-04	1.199835e+00	2.321214e-04	1.199828e+00	2.519200e-04	1.199833e+00	2.350370e-04	1.199824e+00	2.567695e-04	
43	2.450000e-10	4.320000e-01	1.144977e+00	-4.221939e-04	1.199824e+00	2.320184e-04	1.199835e+00	2.321189e-04	1.199828e+00	2.516792e-04	1.199833e+00	2.347625e-04	1.199824e+00	2.564851e-04	
44	2.550000e-10	5.280000e-01	1.079750e+00	-4.091036e-04	1.199830e+00	2.321974e-04	1.199835e+00	2.321211e-04	1.199828e+00	2.514676e-04	1.199833e+00	2.349635e-04	1.199824e+00	2.562757e-04	
45	2.650000e-10	6.240000e-01	9.729925e-01	3.344478e-03	1.199910e+00	2.334838e-04	1.199835e+00	2.321181e-04	1.199828e+00	2.514121e-04	1.199833e+00	2.347609e-04	1.199824e+00	2.561969e-04	
46	2.750000e-10	7.200000e-01	8.024136e-01	2.798440e-02	1.200384e+00	2.403709e-04	1.199835e+00	2.321233e-04	1.199828e+00	2.513197e-04	1.199833e+00	2.349294e-04	1.199824e+00	2.561131e-04	
47	2.850000e-10	8.160000e-01	5.615390e-01	1.232960e-01	1.201785e+00	2.582267e-04	1.199836e+00	2.321230e-04	1.199828e+00	2.513215e-04	1.199833e+00	2.347724e-04	1.199824e+00	2.561000e-04	
48	2.950000e-10	9.120000e-01	3.118106e-01	3.829663e-01	1.186920e+00	6.484027e-06	1.199831e+00	2.320432e-04	1.199828e+00	2.512724e-04	1.199833e+00	2.349090e-04	1.199824e+00	2.560602e-04	
49	3.050000e-10	1.008000e+00	1.379096e-01	7.466493e-01	1.050201e+00	-1.279660e-03	1.199806e+00	2.316747e-04	1.199828e+00	2.512896e-04	1.199833e+00	2.347852e-04	1.199824e+00	2.560668e-04	
50	3.150000e-10	1.104000e+00	5.523059e-02	1.005998e+00	6.876047e-01	3.411377e-02	1.200506e+00	2.430110e-04	1.199828e+00	2.512598e-04	1.199833e+00	2.348948e-04	1.199824e+00	2.560448e-04	
51	3.235972e-10	1.186533e+00	2.501241e-02	1.111757e+00	3.374616e-01	2.199183e-01	1.202085e+00	2.655128e-04	1.199829e+00	2.512831e-04	1.199833e+00	2.347972e-04	1.199824e+00	2.560599e-04	
52	3.250000e-10	1.200000e+00	2.221122e-02	1.122618e+00	2.943763e-01	2.735275e-01	1.202106e+00	2.667773e-04	1.199829e+00	2.512674e-04	1.199833e+00	2.348623e-04	1.199824e+00	2.560492e-04	
53	3.258734e-10	1.200000e+00	2.075194e-02	1.128288e+00	2.716468e-01	3.105336e-01	1.201333e+00	2.564999e-04	1.199829e+00	2.512711e-04	1.199833e+00	2.348473e-04	1.199824e+00	2.560520e-04	
54	3.276203e-10	1.200000e+00	1.776318e-02	1.138782e+00	2.297782e-01	3.866581e-01	1.198018e+00	2.056593e-04	1.199828e+00	2.512703e-04	1.199833e+00	2.348403e-04	1.199824e+00	2.560515e-04	
55	3.311140e-10	1.200000e+00	1.260156e-02	1.155576e+00	1.648080e-01	5.441899e-01	1.175251e+00	-2.074013e-04	1.199822e+00	2.512247e-04	1.199833e+00	2.348443e-04	1.199824e+00	2.560175e-04	
56	3.381015e-10	1.200000e+00	6.259710e-03	1.177165e+00	8.326247e-02	8.154036e-01	1.024299e+00	-1.879689e-03	1.199788e+00	2.509079e-04	1.199833e+00	2.348410e-04	1.199824e+00	2.557477e-04	
57	3.462961e-10	1.200000e+00	2.812041e-03	1.189685e+00	3.671647e-02	1.011986e+00	6.868419e-01	2.741964e-02	1.200296e+00	2.549027e-04	1.199833e+00	2.348442e-04	1.199824e+00	2.589690e-04	
58	3.537141e-10	1.200000e+00	1.452866e-03	1.194938e+00	1.824592e-02	1.104119e+00	3.710485e-01	1.777923e-01	1.202301e+00	2.725663e-04	1.199833e+00	2.348444e-04	1.199824e+00	2.741497e-04	
59	3.618278e-10	1.200000e+00	7.621712e-04	1.197647e+00	8.565285e-03	1.156161e+00	1.644505e-01	5.028325e-01	1.177893e+00	7.941113e-05	1.199831e+00	2.348220e-04	1.199824e+00	1.189604e-04	
60	3.701888e-10	1.200000e+00	4.631538e-04	1.198885e+00	4.058298e-03	1.180360e+00	7.314604e-02	8.310336e-01	1.026630e+00	-6.959943e-04	1.199820e+00	2.347024e-04	1.199824e+00	-5.629470e-04	
61	3.780093e-10	1.200000e+00	3.320384e-04	1.199390e+00	2.030844e-03	1.191015e+00	3.358425e-02	1.015769e+00	7.423045e-01	9.322384e-03	1.199943e+00	2.359964e-04	1.199824e+00	7.496198e-03	
62	3.862534e-10	1.200000e+00	2.796875e-04	1.199640e+00	1.069615e-03	1.195786e+00	1.584641e-02	1.114247e+00	4.345197e-01	8.946796e-02	1.200959e+00	2.468658e-04	1.199824e+00	7.572640e-02	
63	3.945608e-10	1.200000e+00	2.481478e-04	1.199746e+00	5.934646e-04	1.198179e+00	7.264303e-03	1.161533e+00	2.349749e-01	2.914745e-01	1.199674e+00	2.330202e-04	1.199824e+00	2.576764e-01	
64	4.030677e-10	1.200000e+00	2.422506e-04	1.199799e+00	3.993575e-04	1.199037e+00	3.428770e-03	1.182455e+00	1.222136e-01	5.469858e-01	1.168446e+00	-1.021915e-04	1.199821e+00	5.023884e-01	
65	4.120637e-10	1.200000e+00	2.323614e-04	1.199818e+00	2.944663e-04	1.199563e+00	1.603530e-03	1.192261e+00	5.668961e-02	7.557992e-01	1.048268e+00	-8.098335e-04	1.199811e+00	7.167394e-01	
66	4.216518e-10	1.200000e+00	2.347058e-04	1.199831e+00	2.602642e-04	1.199692e+00	7.100839e-04	1.196548e+00	2.699831e-02	8.964532e-01	8.120567e-01	1.085452e-02	1.199943e+00	8.662376e-01	
67	4.294543e-10	1.200000e+00	2.300261e-04	1.199831e+00	2.425722e-04	1.199794e+00	5.623117e-04	1.198280e+00	1.506481e-02	9.778350e-01	5.805496e-01	5.724962e-02	1.200489e+00	9.548794e-01	
68	4.373085e-10	1.200000e+00	2.332272e-04	1.199835e+00	2.384042e-04	1.199801e+00	2.806656e-04	1.198989e+00	9.553364e-03	1.043135e+00	3.773489e-01	1.854770e-01	1.201414e+00	1.028671e+00	
69	4.451601e-10	1.200000e+00	2.299800e-04	1.199834e+00	2.345037e-04	1.199826e+00	3.718744e-04	1.199453e+00	6.164502e-03	1.091764e+00	2.359231e-01	4.001560e-01	1.193348e+00	1.082253e+00	
70	4.538811e-10	1.200000e+00	2.326384e-04	1.199836e+00	2.331498e-04	1.199829e+00	1.838769e-04	1.199616e+00	4.033748e-03	1.129218e+00	1.375311e-01	6.582324e-01	1.137760e+00	1.123440e+00	
71	4.605205e-10	1.200000e+00	2.302334e-04	1.199834e+00	2.330008e-04	1.199831e+00	3.174552e-04	1.199723e+00	3.002591e-03	1.149035e+00	9.031608e-02	8.185315e-01	1.033036e+00	1.144922e+00	
72	4.668903e-10	1.200000e+00	2.322383e-04	1.199836e+00	2.320379e-04	1.199836e+00	1.778290e-04	1.199751e+00	2.188525e-03	1.163011e+00	6.034123e-02	9.312582e-01	8.771421e-01	1.160127e+00	
73	4.726745e-10	1.200000e+00	2.305440e-04	1.199835e+00	2.327392e-04	1.199831e+00	2.918356e-04	1.199782e+00	1.799339e-03	1.172313e+00	4.207159e-02	1.007007e+00	7.106943e-01	1.170207e+00	
74	4.790536e-10	1.200000e+00	2.319461e-04	1.199836e+00	2.317999e-04	1.199837e+00	1.879992e-04	1.199798e+00	1.285648e-03	1.180080e+00	2.825606e-02	1.067925e+00	5.358231e-01	1.178563e+00	
75	4.877549e-10	1.200000e+00	2.307361e-04	1.199835e+00	2.325609e-04	1.199832e+00	2.757502e-04	1.199812e+00	1.006610e-03	1.187199e+00	1.653647e-02	1.123112e+00	3.596204e-01	1.186268e+00	
76	4.968032e-10	1.200000e+00	2.317990e-04	1.199835e+00	2.317667e-04	1.199837e+00	1.951631e-04	1.199822e+00	6.415940e-04	1.192054e+00	9.420990e-03	1.156211e+00	2.334334e-01	1.191455e+00	
77	5.067826e-10	1.200000e+00	2.308534e-04	1.199835e+00	2.324698e-04	1.199833e+00	2.664666e-04	1.199826e+00	5.603169e-04	1.195179e+00	5.186568e-03	1.176286e+00	1.355676e-01	1.194854e+00	
78	5.167826e-10	1.200000e+00	2.316974e-04	1.199835e+00	2.318049e-04	1.199837e+00	2.017433e-04	1.199831e+00	3.567991e-04	1.197168e+00	2.816908e-03	1.187087e+00	7.685902e-02	1.196952e+00	
79	5.267826e-10	1.200000e+00	2.309435e-04	1.199835e+00	2.324102e-04	1.199833e+00	2.596976e-04	1.199831e+00	3.799033e-04	1.198207e+00	1.663078e-03	1.192845e+00	4.298319e-02	1.198106e+00	
80	5.367826e-10	1.200000e+00	2.316164e-04	1.199835e+00	2.318547e-04	1.199837e+00	2.075445e-04	1.199834e+00	2.575503e-04	1.198939e+00	9.533069e-04	1.196076e+00	2.357469e-02	1.198852e+00	
81	5.467826e-10	1.200000e+00	2.310159e-04	1.199835e+00	2.323598e-04	1.199834e+00	2.542389e-04	1.199833e+00	3.120307e-04	1.199253e+00	6.633611e-04	1.197719e+00	1.291863e-02	1.199226e+00	
82	5.567826e-10	1.200000e+00	2.315516e-04	1.199835e+00	2.319008e-04	1.199836e+00	2.123749e-04	1.199835e+00	2.259519e-04	1.199541e+00	4.270209e-04	1.198738e+00	7.116263e-03	1.199500e+00	
83	5.667826e-10	1.200000e+00	2.310738e-04	1.199835e+00	2.323167e-04	1.199834e+00	2.498162e-04	1.199834e+00	2.850591e-04	1.199612e+00	3.742631e-04	1.199179e+00	3.862504e-03	1.199610e+00	
84	5.767826e-10	1.200000e+00	2.314997e-04	1.199835e+00	2.319403e-04	1.199836e+00	2.163175e-04	1.199836e+00	2.180630e-04	1.199743e+00	2.783762e-04	1.199528e+00	2.272596e-03	1.199718e+00	
85	5.867826e-10	1.200000e+00	2.311202e-04	1.199835e+00	2.322807e-04	1.199834e+00	2.462427e-04	1.199834e+00	2.728683e-04	1.199736e+00	2.876323e-04	1.199621e+00	1.227170e-03	1.199741e+00	
86	5.967826e-10	1.200000e+00	2.314583e-04	1.199835e+00	2.319730e-04	1.199836e+00	2.195078e-04	1.199836e+00	2.180687e-04	1.199808e+00	2.374191e-04	1.199760e+00	8.749010e-04	1.199790e+00	
87	6.067826e-10	1.200000e+00	2.311571e-04	1.199835e+00	2.322511e-04	1.199835e+00	2.433729e-04	1.199835e+00	2.661806e-04	1.199780e+00	2.598953e-04	1.199756e+00	4.761193e-04	1.199787e+00	
88	6.167826e-10	1.200000e+00	2.314253e-04	1.199835e+00	2.319997e-04	1.199836e+00	2.220736e-04	1.199835e+00	2.204247e-04	1.199828e+00	2.273531e-04	1.199825e+00	4.714017e-04	1.199813e+00	
89	6.267826e-10	1.200000e+00	2.311866e-04	1.199835e+00	2.322271e-04	1.199835e+00	2.410711e-04	1.199835e+00	2.617252e-04	1.199797e+00	2.497997e-04	1.199799e+00	2.681279e-04	1.199803e+00	
90	6.367826e-10	1.200000e+00	2.313990e-04	1.199835e+00	2.320213e-04	1.199835e+00	2.241252e-04	1.199835e+00	2.232392e-04	1.199833e+00	2.260119e-04	1.199841e+00	3.510310e-04	1.199820e+00	
91	6.467826e-10	1.200000e+00	2.312101e-04	1.199835e+00	2.322077e-04	1.199835e+00	2.392324e-04	1.199835e+00	2.583505e-04	1.199804e+00	2.452731e-04	1.199814e+00	2.151128e-04	1.199810e+00	
92	6.567826e-10	1.200000e+00	2.313781e-04	1.199835e+00	2.320386e-04	1.199835e+00	2.257667e-04	1.199835e+00	2.259154e-04	1.199833e+00	2.269590e-04	1.199843e+00	3.111154e-04	1.199821e+00	
93	6.667826e-10	1.200000e+00	2.312287e-04	1.199835e+00	2.321922e-04	1.199835e+00	2.377661e-04	1.199835e+00	2.556238e-04	1.199808e+00	2.427010e-04	1.199821e+00	2.057322e-04	1.199813e+00	
94	6.767826e-10	1.200000e+00	2.313614e-04	1.199835e+00	2.320525e-04	1.199835e+00	2.270759e-04	1.199835e+00	2.282810e-04	1.199832e+00	2.283293e-04	1.199842e+00	2.944752e-04	1.199821e+00	
95	6.867826e-10	1.200000e+00	2.312436e-04	1.199835e+00	2.321798e-04	1.199835e+00	2.365978e-04	1.199835e+00	2.533598e-04	1.199811e+00	2.409541e-04	1.199824e+00	2.081158e-04	1.199814e+00	
96	6.967826e-10	1.200000e+00	2.313482e-04	1.199835e+00	2.320636e-04	1.199835e+00	2.281187e-04	1.199835e+00	2.303149e-04	1.199830e+00	2.296114e-04	1.199840e+00	2.850582e-04	1.199821e+00	
97	7.067826e-10	1.200000e+00	2.312554e-04	1.199835e+00	2.321698e-04	1.199835e+00	2.356677e-04	1.199835e+00	2.514617e-04	1.199813e+00	2.396508e-04	1.199827e+00	2.131685e-04	1.199815e+00	
98	7.167826e-10	1.200000e+00	2.313377e-04	1.199835e+00	2.320725e-04	1.199835e+00	2.289486e-04	1.199835e+00	2.320427e-04	1.199829e+00	2.306913e-04	1.199839e+00	2.783388e-04	1.199820e+00	
99	7.267826e-10	1.200000e+00	2.312648e-04	1.199835e+00	2.321618e-04	1.199835e+00	2.349279e-04	1.199835e+00	2.498661e-04	1.199814e+00	2.386394e-04	1.199828e+00	2.183388e-04	1.199816e+00	
100	7.367826e-10	1.200000e+00	2.313293e-04	1.199835e+00	2.320797e-04	1.199835e+00	2.296087e-04	1.199835e+00	2.335021e-04	1.199828e+00	2.315684e-04	1.199837e+00	2.729926e-04	1.199820e+00	
101	7.467826e-10	1.200000e+00	2.312722e-04	1.199835e+00	2.321554e-04	1.199835e+00	2.343397e-04	1.199835e+00	2.485245e-04	1.199815e+00	2.378435e-04	1.199829e+00	2.229650e-04	1.199816e+00	
102	7.567826e-10	1.200000e+00	2.313227e-04	1.199835e+00	2.320855e-04	1.199835e+00	2.301334e-04	1.199835e+00	2.347313e-04	1.199827e+00	2.322703e-04	1.199836e+00	2.685770e-04	1.199819e+00	
103	7.667826e-10	1.200000e+00	2.312781e-04	1.199835e+00	2.321502e-04	1.199835e+00	2.338722e-04	1.199835e+00	2.473969e-04	1.199816e+00	2.372145e-04	1.199830e+00	2.269318e-04	1.199816e+00	
104	7.767826e-10	1.200000e+00	2.313175e-04	1.199835e+00	2.320902e-04	1.199835e+00	2.305504e-04	1.199835e+00	2.357648e-04	1.199826e+00	2.328282e-04	1.199836e+00	2.648943e-04	1.199819e+00	
105	7.867826e-10	1.200000e+00	2.312827e-04	1.199835e+00	2.321459e-04	1.199835e+00	2.335007e-04	1.199835e+00	2.464498e-04	1.199817e+00	2.367172e-04	1.199831e+00	2.302783e-04	1.199817e+00	
106	7.967826e-10	1.200000e+00	2.313133e-04	1.199835e+00	2.320940e-04	1.199835e+00	2.308817e-04	1.199835e+00	2.366329e-04	1.199825e+00	2.332701e-04	1.199835e+00	2.618191e-04	1.199819e+00	
107	8.067826e-10	1.200000e+00	2.312864e-04	1.199835e+00	2.321425e-04	1.199835e+00	2.332056e-04	1.199835e+00	2.456547e-04	1.199818e+00	2.363244e-04	1.199832e+00	2.330813e-04	1.199817e+00	
108	8.167826e-10	1.200000e+00	2.313101e-04	1.199835e+00	2.320971e-04	1.199835e+00	2.311448e-04	1.199835e+00	2.373617e-04	1.199824e+00	2.336194e-04	1.199835e+00	2.592537e-04	1.199819e+00	
109	8.267826e-10	1.200000e+00	2.312893e-04	1.199835e+00	2.321396e-04	1.199835e+00	2.329713e-04	1.199835e+00	2.449874e-04	1.199818e+00	2.360143e-04	1.199832e+00	2.354209e-04	1.199817e+00	
110	8.367826e-10	1.200000e+00	2.313075e-04	1.199835e+00	2.320997e-04	1.199835e+00	2.313538e-04	1.199835e+00	2.379733e-04	1.199824e+00	2.338951e-04	1.199834e+00	2.571166e-04	1.199818e+00	
111	8.467826e-10	1.200000e+00	2.312916e-04	1.199835e+00	2.321372e-04	1.199835e+00	2.327852e-04	1.199835e+00	2.444274e-04	1.199819e+00	2.357699e-04	1.199832e+00	2.373697e-04	1.199817e+00	
112	8.567826e-10	1.200000e+00	2.313054e-04	1.199835e+00	2.321019e-04	1.199835e+00	2.315198e-04	1.199835e+00	2.384866e-04	1.199823e+00	2.341124e-04	1.199834e+00	2.553380e-04	1.199818e+00	
113	8.667826e-10	1.200000e+00	2.312935e-04	1.199835e+00	2.321352e-04	1.199835e+00	2.326375e-04	1.199835e+00	2.439575e-04	1.199819e+00	2.355774e-04	1.199832e+00	2.389910e-04	1.199817e+00	
114	8.767826e-10	1.200000e+00	2.313038e-04	1.199835e+00	2.321038e-04	1.199835e+00	2.316515e-04	1.199835e+00	2.389174e-04	1.199823e+00	2.342835e-04	1.199834e+00	2.538592e-04	1.199818e+00	
115	8.867826e-10	1.200000e+00	2.312949e-04	1.199835e+00	2.321335e-04	1.199835e+00	2.325202e-04	1.199835e+00	2.435631e-04	1.199819e+00	2.354259e-04	1.199833e+00	2.403388e-04	1.199817e+00	
116	8.967826e-10	1.200000e+00	2.313026e-04	1.199835e+00	2.321053e-04	1.199835e+00	2.317561e-04	1.199835e+00	2.392790e-04	1.199823e+00	2.344182e-04	1.199834e+00	2.526304e-04	1.199818e+00	
117	9.067826e-10	1.200000e+00	2.312960e-04	1.199835e+00	2.321321e-04	1.199835e+00	2.324272e-04	1.199835e+00	2.432320e-04	1.199820e+00	2.353068e-04	1.199833e+00	2.414584e-04	1.199817e+00	
118	9.167826e-10	1.200000e+00	2.313016e-04	1.199835e+00	2.321066e-04	1.199835e+00	2.318391e-04	1.199835e+00	2.395827e-04	1.199823e+00	2.345240e-04	1.199834e+00	2.516099e-04	1.199818e+00	
119	9.267826e-10	1.200000e+00	2.312969e-04	1.199835e+00	2.321309e-04	1.199835e+00	2.323533e-04	1.199835e+00	2.429539e-04	1.199820e+00	2.352133e-04	1.199833e+00	2.423880e-04	1.199817e+00	
120	9.367826e-10	1.200000e+00	2.313008e-04	1.199835e+00	2.321078e-04	1.199835e+00	2.319050e-04	1.199835e+00	2.398379e-04	1.199822e+00	2.346071e-04	1.199834e+00	2.507629e-04	1.199818e+00	
121	9.467826e-10	1.200000e+00	2.312975e-04	1.199835e+00	2.321298e-04	1.199835e+00	2.322948e-04	1.199835e+00	2.427202e-04	1.199820e+00	2.351400e-04	1.199833e+00	2.431594e-04	1.199817e+00	
122	9.567826e-10	1.200000e+00	2.313002e-04	1.199835e+00	2.321088e-04	1.199835e+00	2.319572e-04	1.199835e+00	2.400525e-04	1.199822e+00	2.346724e-04	1.199833e+00	2.500601e-04	1.199818e+00	
123	9.667826e-10	1.200000e+00	2.312981e-04	1.199835e+00	2.321288e-04	1.199835e+00	2.322484e-04	1.199835e+00	2.425236e-04	1.199820e+00	2.350825e-04	1.199833e+00	2.437994e-04	1.199818e+00	
124	9.767826e-10	1.200000e+00	2.312997e-04	1.199835e+00	2.321097e-04	1.199835e+00	2.319986e-04	1.199835e+00	2.402330e-04	1.199822e+00	2.347235e-04	1.199833e+00	2.494772e-04	1.199818e+00	
125	9.867826e-10	1.200000e+00	2.312985e-04	1.199835e+00	2.321280e-04	1.199835e+00	2.322116e-04	1.199835e+00	2.423581e-04	1.199820e+00	2.350375e-04	1.199833e+00	2.443300e-04	1.199818e+00	
126	9.967826e-10	1.200000e+00	2.312994e-04	1.199835e+00	2.321105e-04	1.199835e+00	2.320315e-04	1.199835e+00	2.403850e-04	1.199822e+00	2.347635e-04	1.199833e+00	2.489941e-04	1.199818e+00	
127	1.006783e-09	1.200000e+00	2.312988e-04	1.199835e+00	2.321273e-04	1.199835e+00	2.321825e-04	1.199835e+00	2.422187e-04	1.199820e+00	2.350024e-04	1.199833e+00	2.447698e-04	1.199818e+00	
128	1.016783e-09	1.200000e+00	2.312991e-04	1.199835e+00	2.321112e-04	1.199835e+00	2.320575e-04	1.199835e+00	2.405132e-04	1.199822e+00	2.347948e-04	1.199833e+00	2.485938e-04	1.199818e+00	
129	1.026783e-09	1.200000e+00	2.312990e-04	1.199835e+00	2.321266e-04	1.199835e+00	2.321594e-04	1.199835e+00	2.421012e-04	1.199821e+00	2.349750e-04	1.199833e+00	2.451340e-04	1.199818e+00	
130	1.036783e-09	1.200000e+00	2.312989e-04	1.199835e+00	2.321118e-04	1.199835e+00	2.320781e-04	1.199835e+00	2.406215e-04	1.199822e+00	2.348192e-04	1.199833e+00	2.482624e-04	1.199818e+00	
131	1.046783e-09	1.200000e+00	2.312992e-04	1.199835e+00	2.321260e-04	1.199835e+00	2.321412e-04	1.199835e+00	2.420018e-04	1.199821e+00	2.349536e-04	1.199833e+00	2.454355e-04	1.199818e+00	
132	1.056783e-09	1.200000e+00	2.312988e-04	1.199835e+00	2.321124e-04	1.199835e+00	2.320943e-04	1.199835e+00	2.407130e-04	1.199822e+00	2.348382e-04	1.199833e+00	2.479882e-04	1.199818e+00	
133	1.066783e-09	1.200000e+00	2.312993e-04	1.199835e+00	2.321254e-04	1.199835e+00	2.321268e-04	1.199835e+00	2.419178e-04	1.199821e+00	2.349371e-04	1.199833e+00	2.456848e-04	1.199818e+00	
134	1.076783e-09	1.200000e+00	2.312987e-04	1.199835e+00	2.321129e-04	1.199835e+00	2.321072e-04	1.199835e+00	2.407905e-04	1.199822e+00	2.348530e-04	1.199833e+00	2.477615e-04	1.199818e+00	
135	1.086783e-09	1.200000e+00	2.312994e-04	1.199835e+00	2.321249e-04	1.199835e+00	2.321155e-04	1.199835e+00	2.418466e-04	1.199821e+00	2.349243e-04	1.199833e+00	2.458909e-04	1.199818e+00	
136	1.096783e-09	1.200000e+00	2.312986e-04	1.199835e+00	2.321134e-04	1.199835e+00	2.321174e-04	1.199835e+00	2.408562e-04	1.199822e+00	2.348644e-04	1.199833e+00	2.475742e-04	1.199818e+00	
137	1.106783e-09	1.200000e+00	2.312995e-04	1.199835e+00	2.321244e-04	1.199835e+00	2.321065e-04	1.199835e+00	2.417862e-04	1.199821e+00	2.349144e-04	1.199833e+00	2.460611e-04	1.199818e+00	
138	1.116783e-09	1.200000e+00	2.312985e-04	1.199835e+00	2.321139e-04	1.199835e+00	2.321254e-04	1.199835e+00	2.409121e-04	1.199821e+00	2.348732e-04	1.199833e+00	2.474197e-04	1.199818e+00	
139	1.126783e-09	1.200000e+00	2.312995e-04	1.199835e+00	2.321240e-04	1.199835e+00	2.320995e-04	1.199835e+00	2.417347e-04	1.199821e+00	2.349069e-04	1.199833e+00	2.462014e-04	1.199818e+00	
140	1.136783e-09	1.200000e+00	2.312985e-04	1.199835e+00	2.321143e-04	1.199835e+00	2.321317e-04	1.199835e+00	2.409597e-04	1.199821e+00	2.348800e-04	1.199833e+00	2.472923e-04	1.199818e+00	
141	1.146783e-09	1.200000e+00	2.312995e-04	1.199835e+00	2.321236e-04	1.199835e+00	2.320940e-04	1.199835e+00	2.416908e-04	1.199821e+00	2.349012e-04	1.199833e+00	2.463170e-04	1.199818e+00	
142	1.156783e-09	1.200000e+00	2.312985e-04	1.199835e+00	2.321147e-04	1.199835e+00	2.321366e-04	1.199835e+00	2.410004e-04	1.199821e+00	2.348852e-04	1.199833e+00	2.471876e-04	1.199818e+00	
143	1.166783e-09	1.200000e+00	2.312995e-04	1.199835e+00	2.321232e-04	1.199835e+00	2.320896e-04	1.199835e+00	2.416533e-04	1.199821e+00	2.348968e-04	1.199833e+00	2.464120e-04	1.199818e+00	
144	1.176783e-09	1.200000e+00	2.312985e-04	1.199835e+00	2.321151e-04	1.199835e+00	2.321405e-04	1.199835e+00	2.410353e-04	1.199821e+00	2.348891e-04	1.199833e+00	2.471015e-04	1.199818e+00	
145	1.186783e-09	1.200000e+00	2.312996e-04	1.199835e+00	2.321229e-04	1.199835e+00	2.320863e-04	1.199835e+00	2.416211e-04	1.199821e+00	2.348936e-04	1.199833e+00	2.464900e-04	1.199818e+00	
146	1.196783e-09	1.200000e+00	2.312985e-04	1.199835e+00	2.321154e-04	1.199835e+00	2.321436e-04	1.199835e+00	2.410653e-04	1.199821e+00	2.348921e-04	1.199833e+00	2.470309e-04	1.199818e+00	
147	1.206783e-09	1.200000e+00	2.312995e-04	1.199835e+00	2.321225e-04	1.199835e+00	2.320837e-04	1.199835e+00	2.415934e-04	1.199821e+00	2.348912e-04	1.199833e+00	2.465539e-04	1.199818e+00	
148	1.216783e-09	1.200000e+00	2.312985e-04	1.199835e+00	2.321157e-04	1.199835e+00	2.321459e-04	1.199835e+00	2.410912e-04	1.199821e+00	2.348942e-04	1.199833e+00	2.469732e-04	1.199818e+00	
149	1.226783e-09	1.200000e+00	2.312995e-04	1.199835e+00	2.321222e-04	1.199835e+00	2.320817e-04	1.199835e+00	2.415694e-04	1.199821e+00	2.348895e-04	1.199833e+00	2.466061e-04	1.199818e+00	
150	1.236783e-09	1.200000e+00	2.312985e-04	1.199835e+00	2.321160e-04	1.199835e+00	2.321477e-04	1.199835e+00	2.411136e-04	1.199821e+00	2.348958e-04	1.199833e+00	2.469261e-04	1.199818e+00	
151	1.246783e-09	1.200000e+00	2.312995e-04	1.199835e+00	2.321219e-04	1.199835e+00	2.320802e-04	1.199835e+00	2.415486e-04	1.199821e+00	2.348883e-04	1.199833e+00	2.466485e-04	1.199818e+00	
152	1.256783e-09	1.200000e+00	2.312985e-04	1.199835e+00	2.321163e-04	1.199835e+00	2.321491e-04	1.199835e+00	2.411331e-04	1.199821e+00	2.348970e-04	1.199833e+00	2.468879e-04	1.199818e+00	
153	1.266783e-09	1.200000e+00	2.312995e-04	1.199835e+00	2.321216e-04	1.199835e+00	2.320790e-04	1.199835e+00	2.415305e-04	1.199821e+00	2.348875e-04	1.199833e+00	2.466830e-04	1.199818e+00	
154	1.276783e-09	1.200000e+00	2.312985e-04	1.199835e+00	2.321166e-04	1.199835e+00	2.321502e-04	1.199835e+00	2.411502e-04	1.199821e+00	2.348978e-04	1.199833e+00	2.468569e-04	1.199818e+00	
155	1.286783e-09	1.200000e+00	2.312995e-04	1.199835e+00	2.321214e-04	1.199835e+00	2.320781e-04	1.199835e+00	2.415147e-04	1.199821e+00	2.348870e-04	1.199833e+00	2.467108e-04	1.199818e+00	
156	1.296783e-09	1.200000e+00	2.312986e-04	1.199835e+00	2.321168e-04	1.199835e+00	2.321510e-04	1.199835e+00	2.411651e-04	1.199821e+00	2.348983e-04	1.199833e+00	2.468320e-04	1.199818e+00	
157	1.306783e-09	1.200000e+00	2.312995e-04	1.199835e+00	2.321211e-04	1.199835e+00	2.320775e-04	1.199835e+00	2.415008e-04	1.199821e+00	2.348868e-04	1.199833e+00	2.467332e-04	1.199818e+00	
158	1.316783e-09	1.200000e+00	2.312986e-04	1.199835e+00	2.321171e-04	1.199835e+00	2.321516e-04	1.199835e+00	2.411783e-04	1.199821e+00	2.348986e-04	1.199833e+00	2.468121e-04	1.199818e+00	
159	1.326783e-09	1.200000e+00	2.312994e-04	1.199835e+00	2.321209e-04	1.199835e+00	2.320771e-04	1.199835e+00	2.414884e-04	1.199821e+00	2.348867e-04	1.199833e+00	2.467510e-04	1.199818e+00	
160	1.336783e-09	1.200000e+00	2.312986e-04	1.199835e+00	2.321173e-04	1.199835e+00	2.321520e-04	1.199835e+00	2.411900e-04	1.199821e+00	2.348988e-04	1.199833e+00	2.467963e-04	1.199818e+00	
161	1.346783e-09	1.200000e+00	2.312994e-04	1.199835e+00	2.321207e-04	1.199835e+00	2.320768e-04	1.199835e+00	2.414775e-04	1.199821e+00	2.348867e-04	1.199833e+00	2.467651e-04	1.199818e+00	
162	1.356783e-09	1.200000e+00	2.312986e-04	1.199835e+00	2.321175e-04	1.199835e+00	2.321523e-04	1.199835e+00	2.412005e-04	1.199821e+00	2.348988e-04	1.199833e+00	2.467838e-04	1.199818e+00	
163	1.366783e-09	1.200000e+00	2.312994e-04	1.199835e+00	2.321205e-04	1.199835e+00	2.320766e-04	1.199835e+00	2.414677e-04	1.199821e+00	2.348869e-04	1.199833e+00	2.467761e-04	1.199818e+00	
164	1.376783e-09	1.200000e+00	2.312987e-04	1.199835e+00	2.321177e-04	1.199835e+00	2.321525e-04	1.199835e+00	2.412098e-04	1.199821e+00	2.348988e-04	1.199833e+00	2.467742e-04	1.199818e+00	
165	1.386783e-09	1.200000e+00	2.312994e-04	1.199835e+00	2.321203e-04	1.199835e+00	2.320765e-04	1.199835e+00	2.414590e-04	1.199821e+00	2.348871e-04	1.199833e+00	2.467846e-04	1.199818e+00	
166	1.396783e-09	1.200000e+00	2.312987e-04	1.199835e+00	2.321179e-04	1.199835e+00	2.321526e-04	1.199835e+00	2.412182e-04	1.199821e+00	2.348987e-04	1.199833e+00	2.467668e-04	1.199818e+00	
167	1.406783e-09	1.200000e+00	2.312993e-04	1.199835e+00	2.321201e-04	1.199835e+00	2.320765e-04	1.199835e+00	2.414511e-04	1.199821e+00	2.348873e-04	1.199833e+00	2.467910e-04	1.199818e+00	
168	1.416783e-09	1.200000e+00	2.312987e-04	1.199835e+00	2.321181e-04	1.199835e+00	2.321527e-04	1.199835e+00	2.412259e-04	1.199821e+00	2.348985e-04	1.199833e+00	2.467613e-04	1.199818e+00	
169	1.426783e-09	1.200000e+00	2.312993e-04	1.199835e+00	2.321199e-04	1.199835e+00	2.320765e-04	1.199835e+00	2.414439e-04	1.199821e+00	2.348877e-04	1.199833e+00	2.467957e-04	1.199818e+00	
170	1.436783e-09	1.200000e+00	2.312987e-04	1.199835e+00	2.321183e-04	1.199835e+00	2.321527e-04	1.199835e+00	2.412328e-04	1.199821e+00	2.348984e-04	1.199833e+00	2.467574e-04	1.199818e+00	
171	1.446783e-09	1.200000e+00	2.312993e-04	1.199835e+00	2.321197e-04	1.199835e+00	2.320765e-04	1.199835e+00	2.414373e-04	1.199821e+00	2.348880e-04	1.199833e+00	2.467990e-04	1.199818e+00	
172	1.456783e-09	1.200000e+00	2.312987e-04	1.199835e+00	2.321184e-04	1.199835e+00	2.321527e-04	1.199835e+00	2.412392e-04	1.199821e+00	2.348982e-04	1.199833e+00	2.467547e-04	1.199818e+00	
173	1.466783e-09	1.200000e+00	2.312993e-04	1.199835e+00	2.321196e-04	1.199835e+00	2.320766e-04	1.199835e+00	2.414313e-04	1.199821e+00	2.348883e-04	1.199833e+00	2.468012e-04	1.199818e+00	
174	1.476783e-09	1.200000e+00	2.312988e-04	1.199835e+00	2.321186e-04	1.199835e+00	2.321526e-04	1.199835e+00	2.412451e-04	1.199821e+00	2.348980e-04	1.199833e+00	2.467530e-04	1.199818e+00	
175	1.486783e-09	1.200000e+00	2.312992e-04	1.199835e+00	2.321194e-04	1.199835e+00	2.320768e-04	1.199835e+00	2.414258e-04	1.199821e+00	2.348887e-04	1.199833e+00	2.468025e-04	1.199818e+00	
176	1.496783e-09	1.200000e+00	2.312988e-04	1.199835e+00	2.321187e-04	1.199835e+00	2.321525e-04	1.199835e+00	2.412505e-04	1.199821e+00	2.348977e-04	1.199833e+00	2.467521e-04	1.199818e+00	
177	1.506783e-09	1.200000e+00	2.312992e-04	1.199835e+00	2.321193e-04	1.199835e+00	2.320769e-04	1.199835e+00	2.414206e-04	1.199821e+00	2.348890e-04	1.199833e+00	2.468030e-04	1.199818e+00	
178	1.516783e-09	1.200000e+00	2.312988e-04	1.199835e+00	2.321189e-04	1.199835e+00	2.321524e-04	1.199835e+00	2.412555e-04	1.199821e+00	2.348975e-04	1.199833e+00	2.467519e-04	1.199818e+00	
179	1.526783e-09	1.200000e+00	2.312992e-04	1.199835e+00	2.321192e-04	1.199835e+00	2.320771e-04	1.199835e+00	2.414158e-04	1.199821e+00	2.348894e-04	1.199833e+00	2.468030e-04	1.199818e+00	
180	1.536783e-09	1.200000e+00	2.312988e-04	1.199835e+00	2.321190e-04	1.199835e+00	2.321523e-04	1.199835e+00	2.412602e-04	1.199821e+00	2.348973e-04	1.199833e+00	2.467522e-04	1.199818e+00	
181	1.546783e-09	1.200000e+00	2.312992e-04	1.199835e+00	2.321190e-04	1.199835e+00	2.320772e-04	1.199835e+00	2.414114e-04	1.199821e+00	2.348897e-04	1.199833e+00	2.468024e-04	1.199818e+00	
182	1.556783e-09	1.200000e+00	2.312988e-04	1.199835e+00	2.321191e-04	1.199835e+00	2.321522e-04	1.199835e+00	2.412646e-04	1.199821e+00	2.348971e-04	1.199833e+00	2.467530e-04	1.199818e+00	
183	1.566783e-09	1.200000e+00	2.312992e-04	1.199835e+00	2.321189e-04	1.199835e+00	2.320774e-04	1.199835e+00	2.414072e-04	1.199821e+00	2.348900e-04	1.199833e+00	2.468015e-04	1.199818e+00	
184	1.576783e-09	1.200000e+00	2.312989e-04	1.199835e+00	2.321192e-04	1.199835e+00	2.321521e-04	1.199835e+00	2.412688e-04	1.199821e+00	2.348969e-04	1.199833e+00	2.467541e-04	1.199818e+00	
185	1.586783e-09	1.200000e+00	2.312992e-04	1.199835e+00	2.321188e-04	1.199835e+00	2.320776e-04	1.199835e+00	2.414032e-04	1.199821e+00	2.348903e-04	1.199833e+00	2.468003e-04	1.199818e+00	
186	1.596783e-09	1.200000e+00	2.312989e-04	1.199835e+00	2.321193e-04	1.199835e+00	2.321520e-04	1.199835e+00	2.412727e-04	1.199821e+00	2.348967e-04	1.199833e+00	2.467554e-04	1.199818e+00	
187	1.606783e-09	1.200000e+00	2.312991e-04	1.199835e+00	2.321187e-04	1.199835e+00	2.320777e-04	1.199835e+00	2.413995e-04	1.199821e+00	2.348906e-04	1.199833e+00	2.467989e-04	1.199818e+00	
188	1.616783e-09	1.200000e+00	2.312989e-04	1.199835e+00	2.321194e-04	1.199835e+00	2.321519e-04	1.199835e+00	2.412764e-04	1.199821e+00	2.348965e-04	1.199833e+00	2.467569e-04	1.199818e+00	
189	1.626783e-09	1.200000e+00	2.312991e-04	1.199835e+00	2.321186e-04	1.199835e+00	2.320779e-04	1.199835e+00	2.413960e-04	1.199821e+00	2.348909e-04	1.199833e+00	2.467974e-04	1.199818e+00	
190	1.636783e-09	1.200000e+00	2.312989e-04	1.199835e+00	2.321195e-04	1.199835e+00	2.321517e-04	1.199835e+00	2.412799e-04	1.199821e+00	2.348964e-04	1.199833e+00	2.467586e-04	1.199818e+00	
191	1.646783e-09	1.200000e+00	2.312991e-04	1.199835e+00	2.321185e-04	1.199835e+00	2.320781e-04	1.199835e+00	2.413926e-04	1.199821e+00	2.348912e-04	1.199833e+00	2.467956e-04	1.199818e+00	
192	1.656783e-09	1.200000e+00	2.312989e-04	1.199835e+00	2.321196e-04	1.199835e+00	2.321516e-04	1.199835e+00	2.412833e-04	1.199821e+00	2.348962e-04	1.199833e+00	2.467604e-04	1.199818e+00	
193	1.666783e-09	1.200000e+00	2.312991e-04	1.199835e+00	2.321184e-04	1.199835e+00	2.320783e-04	1.199835e+00	2.413894e-04	1.199821e+00	2.348915e-04	1.199833e+00	2.467939e-04	1.199818e+00	
194	1.676783e-09	1.200000e+00	2.312989e-04	1.199835e+00	2.321197e-04	1.199835e+00	2.321515e-04	1.199835e+00	2.412865e-04	1.199821e+00	2.348961e-04	1.199833e+00	2.467622e-04	1.199818e+00	
195	1.686783e-09	1.200000e+00	2.312991e-04	1.199835e+00	2.321184e-04	1.199835e+00	2.320785e-04	1.199835e+00	2.413864e-04	1.199821e+00	2.348918e-04	1.199833e+00	2.467920e-04	1.199818e+00	
196	1.696783e-09	1.200000e+00	2.312989e-04	1.199835e+00	2.321198e-04	1.199835e+00	2.321513e-04	1.199835e+00	2.412895e-04	1.199821e+00	2.348959e-04	1.199833e+00	2.467641e-04	1.199818e+00	
197	1.706783e-09	1.200000e+00	2.312991e-04	1.199835e+00	2.321183e-04	1.199835e+00	2.320786e-04	1.199835e+00	2.413835e-04	1.199821e+00	2.348920e-04	1.199833e+00	2.467901e-04	1.199818e+00	
198	1.716783e-09	1.200000e+00	2.312990e-04	1.199835e+00	2.321199e-04	1.199835e+00	2.321512e-04	1.199835e+00	2.412924e-04	1.199821e+00	2.348958e-04	1.199833e+00	2.467660e-04	1.199818e+00	
199	1.726783e-09	1.200000e+00	2.312991e-04	1.199835e+00	2.321182e-04	1.199835e+00	2.320788e-04	1.199835e+00	2.413807e-04	1.199821e+00	2.348923e-04	1.199833e+00	2.467882e-04	1.199818e+00	
200	1.736783e-09	1.200000e+00	2.312990e-04	1.199835e+00	2.321199e-04	1.199835e+00	2.321511e-04	1.199835e+00	2.412953e-04	1.199821e+00	2.348957e-04	1.199833e+00	2.467679e-04	1.199818e+00	
201	1.746783e-09	1.200000e+00	2.312991e-04	1.199835e+00	2.321181e-04	1.199835e+00	2.320790e-04	1.199835e+00	2.413780e-04	1.199821e+00	2.348925e-04	1.199833e+00	2.467864e-04	1.199818e+00	
202	1.756783e-09	1.200000e+00	2.312990e-04	1.199835e+00	2.321200e-04	1.199835e+00	2.321510e-04	1.199835e+00	2.412979e-04	1.199821e+00	2.348955e-04	1.199833e+00	2.467698e-04	1.199818e+00	
203	1.766783e-09	1.200000e+00	2.312990e-04	1.199835e+00	2.321181e-04	1.199835e+00	2.320792e-04	1.199835e+00	2.413755e-04	1.199821e+00	2.348927e-04	1.199833e+00	2.467845e-04	1.199818e+00	
204	1.776783e-09	1.200000e+00	2.312990e-04	1.199835e+00	2.321201e-04	1.199835e+00	2.321508e-04	1.199835e+00	2.413005e-04	1.199821e+00	2.348954e-04	1.199833e+00	2.467717e-04	1.199818e+00	
205	1.786783e-09	1.200000e+00	2.312990e-04	1.199835e+00	2.321180e-04	1.199835e+00	2.320793e-04	1.199835e+00	2.413730e-04	1.199821e+00	2.348929e-04	1.199833e+00	2.467826e-04	1.199818e+00	
206	1.796783e-09	1.200000e+00	2.312990e-04	1.199835e+00	2.321201e-04	1.199835e+00	2.321507e-04	1.199835e+00	2.413030e-04	1.199821e+00	2.348953e-04	1.199833e+00	2.467735e-04	1.199818e+00	
207	1.806783e-09	1.200000e+00	2.312990e-04	1.199835e+00	2.321180e-04	1.199835e+00	2.320795e-04	1.199835e+00	2.413706e-04	1.199821e+00	2.348931e-04	1.199833e+00	2.467808e-04	1.199818e+00	
208	1.816783e-09	1.200000e+00	2.312990e-04	1.199835e+00	2.321202e-04	1.199835e+00	2.321506e-04	1.199835e+00	2.413054e-04	1.199821e+00	2.348953e-04	1.199833e+00	2.467753e-04	1.199818e+00	
209	1.826783e-09	1.200000e+00	2.312990e-04	1.199835e+00	2.321179e-04	1.199835e+00	2.320797e-04	1.199835e+00	2.413683e-04	1.199821e+00	2.348933e-04	1.199833e+00	2.467791e-04	1.199818e+00	
210	1.836783e-09	1.200000e+00	2.312990e-04	1.199835e+00	2.321202e-04	1.199835e+00	2.321505e-04	1.199835e+00	2.413078e-04	1.199821e+00	2.348952e-04	1.199833e+00	2.467771e-04	1.199818e+00	
211	1.846783e-09	1.200000e+00	2.312990e-04	1.199835e+00	2.321179e-04	1.199835e+00	2.320798e-04	1.199835e+00	2.413661e-04	1.199821e+00	2.348935e-04	1.199833e+00	2.467774e-04	1.199818e+00	
212	1.856783e-09	1.200000e+00	2.312990e-04	1.199835e+00	2.321203e-04	1.199835e+00	2.321504e-04	1.199835e+00	2.413100e-04	1.199821e+00	2.348951e-04	1.199833e+00	2.467788e-04	1.199818e+00	
213	1.866783e-09	1.200000e+00	2.312990e-04	1.199835e+00	2.321178e-04	1.199835e+00	2.320800e-04	1.199835e+00	2.413640e-04	1.199821e+00	2.348937e-04	1.199833e+00	2.467757e-04	1.199818e+00	
214	1.876783e-09	1.200000e+00	2.312990e-04	1.199835e+00	2.321203e-04	1.199835e+00	2.321502e-04	1.199835e+00	2.413122e-04	1.199821e+00	2.348950e-04	1.199833e+00	2.467805e-04	1.199818e+00	
215	1.886783e-09	1.200000e+00	2.312990e-04	1.199835e+00	2.321178e-04	1.199835e+00	2.320801e-04	1.199835e+00	2.413619e-04	1.199821e+00	2.348938e-04	1.199833e+00	2.467741e-04	1.199818e+00	
216	1.896783e-09	1.200000e+00	2.312990e-04	1.199835e+00	2.321203e-04	1.199835e+00	2.321501e-04	1.199835e+00	2.413143e-04	1.199821e+00	2.348950e-04	1.199833e+00	2.467821e-04	1.199818e+00	
217	1.906783e-09	1.200000e+00	2.312990e-04	1.199835e+00	2.321177e-04	1.199835e+00	2.320803e-04	1.199835e+00	2.413599e-04	1.199821e+00	2.348940e-04	1.199833e+00	2.467725e-04	1.199818e+00	
218	1.916783e-09	1.200000e+00	2.312990e-04	1.199835e+00	2.321204e-04	1.199835e+00	2.321500e-04	1.199835e+00	2.413163e-04	1.199821e+00	2.348949e-04	1.199833e+00	2.467837e-04	1.199818e+00	
219	1.926783e-09	1.200000e+00	2.312990e-04	1.199835e+00	2.321177e-04	1.199835e+00	2.320805e-04	1.199835e+00	2.413580e-04	1.199821e+00	2.348941e-04	1.199833e+00	2.467710e-04	1.199818e+00	
220	1.936783e-09	1.200000e+00	2.312990e-04	1.199835e+00	2.321204e-04	1.199835e+00	2.321499e-04	1.199835e+00	2.413183e-04	1.199821e+00	2.348949e-04	1.199833e+00	2.467852e-04	1.199818e+00	
221	1.946783e-09	1.200000e+00	2.312990e-04	1.199835e+00	2.321177e-04	1.199835e+00	2.320806e-04	1.199835e+00	2.413562e-04	1.199821e+00	2.348943e-04	1.199833e+00	2.467695e-04	1.199818e+00	
222	1.956783e-09	1.200000e+00	2.312990e-04	1.199835e+00	2.321204e-04	1.199835e+00	2.321498e-04	1.199835e+00	2.413201e-04	1.199821e+00	2.348949e-04	1.199833e+00	2.467866e-04	1.199818e+00	
223	1.966783e-09	1.200000e+00	2.312990e-04	1.199835e+00	2.321176e-04	1.199835e+00	2.320808e-04	1.199835e+00	2.413544e-04	1.199821e+00	2.348944e-04	1.199833e+00	2.467681e-04	1.199818e+00	
224	1.976783e-09	1.200000e+00	2.312991e-04	1.199835e+00	2.321205e-04	1.199835e+00	2.321497e-04	1.199835e+00	2.413220e-04	1.199821e+00	2.348948e-04	1.199833e+00	2.467880e-04	1.199818e+00	
225	1.986783e-09	1.200000e+00	2.312990e-04	1.199835e+00	2.321176e-04	1.199835e+00	2.320809e-04	1.199835e+00	2.413526e-04	1.199821e+00	2.348946e-04	1.199833e+00	2.467668e-04	1.199818e+00	
226	1.996783e-09	1.200000e+00	2.312991e-04	1.199835e+00	2.321205e-04	1.199835e+00	2.321496e-04	1.199835e+00	2.413238e-04	1.199821e+00	2.348948e-04	1.199833e+00	2.467893e-04	1.199818e+00	
227	2.000000e-09	1.200000e+00	2.312990e-04	1.199835e+00	2.321176e-04	1.199835e+00	2.320813e-04	1.199835e+00	2.413493e-04	1.199821e+00	2.348951e-04	1.199833e+00	2.467641e-04	1.199818e+00	

                                                                                                                * spice from s2s
                                                                                                                Transient Analysis  Sat Feb  7 10:40:24  2009
------------------------------------------------------------------------------------------------------------------------------------------------------------------------------------------------------------------------------------------------
Index   time            v(n38)          v(n48)          v(n54)          v(n30)          v(n40)          v(n46)          v(n58)          v(n56)          v(n42)          v(n44)          v(n60)          v(n62)          v(n2)           
------------------------------------------------------------------------------------------------------------------------------------------------------------------------------------------------------------------------------------------------
0	0.000000e+00	1.200000e+00	0.000000e+00	1.200000e+00	0.000000e+00	1.200000e+00	0.000000e+00	1.200000e+00	1.200000e+00	1.200000e+00	0.000000e+00	1.200000e+00	1.200000e+00	0.000000e+00	
1	1.000000e-13	1.200689e+00	4.405529e-02	1.201988e+00	8.565531e-03	1.202284e+00	6.789656e-02	1.201268e+00	1.200005e+00	1.201605e+00	5.772771e-02	1.201323e+00	1.201323e+00	4.212555e-02	
2	1.168182e-13	1.200822e+00	5.128610e-02	1.202368e+00	1.025819e-02	1.202720e+00	7.874191e-02	1.201512e+00	1.200006e+00	1.201913e+00	6.701727e-02	1.201577e+00	1.201577e+00	4.912058e-02	
3	1.504547e-13	1.201120e+00	6.540165e-02	1.203201e+00	1.413285e-02	1.203673e+00	9.935229e-02	1.202054e+00	1.200008e+00	1.202597e+00	8.480239e-02	1.202141e+00	1.202141e+00	6.293235e-02	
4	2.177275e-13	1.201875e+00	9.168017e-02	1.205186e+00	2.435785e-02	1.205905e+00	1.348034e-01	1.203387e+00	1.200016e+00	1.204270e+00	1.160853e-01	1.203528e+00	1.203528e+00	8.950509e-02	
5	3.522733e-13	1.203794e+00	1.375054e-01	1.209609e+00	5.001517e-02	1.210675e+00	1.882452e-01	1.206599e+00	1.200049e+00	1.208212e+00	1.653201e-01	1.206860e+00	1.206860e+00	1.386606e-01	
6	6.213647e-13	1.208163e+00	2.085641e-01	1.217374e+00	1.016004e-01	1.218631e+00	2.525441e-01	1.213269e+00	1.200222e+00	1.216040e+00	2.296169e-01	1.213752e+00	1.213752e+00	2.226818e-01	
7	9.221938e-13	1.212645e+00	2.644631e-01	1.222352e+00	1.451905e-01	1.223954e+00	2.877417e-01	1.219276e+00	1.200614e+00	1.222724e+00	2.699715e-01	1.219928e+00	1.219928e+00	2.971304e-01	
8	1.348109e-12	1.217015e+00	3.166165e-01	1.223477e+00	1.811424e-01	1.226857e+00	3.092278e-01	1.224039e+00	1.201467e+00	1.227816e+00	2.998850e-01	1.224812e+00	1.224812e+00	3.748084e-01	
9	1.880760e-12	1.219434e+00	3.534594e-01	1.220028e+00	2.012274e-01	1.226589e+00	3.143281e-01	1.225381e+00	1.202748e+00	1.229210e+00	3.140854e-01	1.226263e+00	1.226263e+00	4.375986e-01	
10	2.684430e-12	1.219190e+00	3.760424e-01	1.213039e+00	2.093820e-01	1.223310e+00	3.047789e-01	1.222754e+00	1.204415e+00	1.226475e+00	3.142363e-01	1.223936e+00	1.223936e+00	4.848347e-01	
11	3.496810e-12	1.216839e+00	3.774298e-01	1.207203e+00	2.071926e-01	1.219246e+00	2.881108e-01	1.218259e+00	1.205351e+00	1.221832e+00	3.037396e-01	1.219884e+00	1.219884e+00	4.963887e-01	
12	4.603078e-12	1.213186e+00	3.646621e-01	1.201398e+00	1.996598e-01	1.214283e+00	2.637538e-01	1.212387e+00	1.205438e+00	1.215878e+00	2.844820e-01	1.214545e+00	1.214545e+00	4.828836e-01	
13	6.076190e-12	1.209091e+00	3.369924e-01	1.195427e+00	1.873941e-01	1.208917e+00	2.323538e-01	1.206103e+00	1.204221e+00	1.209679e+00	2.565065e-01	1.208521e+00	1.208521e+00	4.422755e-01	
14	8.383832e-12	1.204542e+00	2.882888e-01	1.188129e+00	1.679875e-01	1.202703e+00	1.890809e-01	1.199329e+00	1.201323e+00	1.203000e+00	2.146086e-01	1.201276e+00	1.201276e+00	3.677219e-01	
15	1.138079e-11	1.200602e+00	2.293744e-01	1.182303e+00	1.444923e-01	1.197541e+00	1.437314e-01	1.194372e+00	1.197968e+00	1.197653e+00	1.679805e-01	1.195115e+00	1.195115e+00	2.806498e-01	
16	1.568482e-11	1.197049e+00	1.617681e-01	1.179894e+00	1.153909e-01	1.193866e+00	9.612881e-02	1.191535e+00	1.195106e+00	1.193743e+00	1.167925e-01	1.190864e+00	1.190864e+00	1.876999e-01	
17	2.096257e-11	1.195039e+00	1.040969e-01	1.181863e+00	8.704221e-02	1.192799e+00	5.823609e-02	1.191266e+00	1.193825e+00	1.192490e+00	7.419942e-02	1.189749e+00	1.189749e+00	1.141547e-01	
18	2.844280e-11	1.194731e+00	5.489398e-02	1.186616e+00	5.808891e-02	1.193813e+00	2.814837e-02	1.192679e+00	1.194037e+00	1.193489e+00	3.847407e-02	1.190955e+00	1.190955e+00	5.583156e-02	
19	3.688375e-11	1.195758e+00	2.645670e-02	1.191255e+00	3.677176e-02	1.195723e+00	1.233970e-02	1.194609e+00	1.195285e+00	1.195493e+00	1.825435e-02	1.193192e+00	1.193192e+00	2.488411e-02	
20	4.688375e-11	1.197158e+00	1.104723e-02	1.194973e+00	2.134858e-02	1.197505e+00	4.657867e-03	1.196434e+00	1.196787e+00	1.197376e+00	7.513528e-03	1.195473e+00	1.195473e+00	9.520514e-03	
21	5.688375e-11	1.198214e+00	4.706485e-03	1.197182e+00	1.244030e-02	1.198580e+00	1.873812e-03	1.197687e+00	1.197899e+00	1.198513e+00	3.203207e-03	1.197077e+00	1.197077e+00	3.798818e-03	
22	6.688375e-11	1.198892e+00	2.103254e-03	1.198416e+00	7.288008e-03	1.199169e+00	8.602607e-04	1.198498e+00	1.198629e+00	1.199135e+00	1.457798e-03	1.198120e+00	1.198120e+00	1.639032e-03	
23	7.688375e-11	1.199297e+00	1.015875e-03	1.199087e+00	4.315894e-03	1.199478e+00	4.807932e-04	1.199006e+00	1.199088e+00	1.199461e+00	7.520788e-04	1.198776e+00	1.198776e+00	8.045231e-04	
24	8.688375e-11	1.199531e+00	5.705866e-04	1.199442e+00	2.595679e-03	1.199642e+00	3.399009e-04	1.199320e+00	1.199371e+00	1.199633e+00	4.574692e-04	1.199182e+00	1.199182e+00	4.728295e-04	
25	9.688375e-11	1.199663e+00	3.749313e-04	1.199629e+00	1.606497e-03	1.199727e+00	2.820811e-04	1.199512e+00	1.199545e+00	1.199722e+00	3.382863e-04	1.199430e+00	1.199430e+00	3.353415e-04	
26	1.068838e-10	1.199738e+00	2.990816e-04	1.199725e+00	1.032076e-03	1.199774e+00	2.609880e-04	1.199630e+00	1.199650e+00	1.199771e+00	2.839685e-04	1.199581e+00	1.199581e+00	2.760077e-04	
27	1.168838e-10	1.199780e+00	2.595264e-04	1.199775e+00	7.041322e-04	1.199799e+00	2.497172e-04	1.199701e+00	1.199714e+00	1.199797e+00	2.634810e-04	1.199673e+00	1.199673e+00	2.489935e-04	
28	1.268838e-10	1.199804e+00	2.484529e-04	1.199800e+00	5.117125e-04	1.199814e+00	2.466071e-04	1.199744e+00	1.199753e+00	1.199812e+00	2.512451e-04	1.199728e+00	1.199728e+00	2.362022e-04	
29	1.368838e-10	1.199817e+00	2.378802e-04	1.199813e+00	4.038539e-04	1.199821e+00	2.432687e-04	1.199770e+00	1.199777e+00	1.199820e+00	2.482680e-04	1.199762e+00	1.199762e+00	2.298421e-04	
30	1.468838e-10	1.199824e+00	2.381978e-04	1.199819e+00	3.387084e-04	1.199826e+00	2.432222e-04	1.199786e+00	1.199791e+00	1.199825e+00	2.442835e-04	1.199782e+00	1.199782e+00	2.266131e-04	
31	1.568838e-10	1.199828e+00	2.337512e-04	1.199822e+00	3.039598e-04	1.199828e+00	2.416985e-04	1.199795e+00	1.199799e+00	1.199827e+00	2.445969e-04	1.199794e+00	1.199794e+00	2.249102e-04	
32	1.668838e-10	1.199831e+00	2.357899e-04	1.199824e+00	2.812549e-04	1.199830e+00	2.421942e-04	1.199801e+00	1.199804e+00	1.199829e+00	2.426127e-04	1.199801e+00	1.199801e+00	2.240132e-04	
33	1.768838e-10	1.199832e+00	2.330623e-04	1.199825e+00	2.707117e-04	1.199830e+00	2.412824e-04	1.199805e+00	1.199808e+00	1.199829e+00	2.435100e-04	1.199806e+00	1.199806e+00	2.235248e-04	
34	1.868838e-10	1.199833e+00	2.350512e-04	1.199825e+00	2.622126e-04	1.199831e+00	2.418087e-04	1.199807e+00	1.199810e+00	1.199830e+00	2.421974e-04	1.199808e+00	1.199808e+00	2.232637e-04	
35	1.968838e-10	1.199833e+00	2.330658e-04	1.199825e+00	2.596214e-04	1.199831e+00	2.411916e-04	1.199808e+00	1.199811e+00	1.199830e+00	2.431110e-04	1.199810e+00	1.199810e+00	2.231195e-04	
36	2.000000e-10	1.199833e+00	2.345655e-04	1.199825e+00	2.574703e-04	1.199831e+00	2.415917e-04	1.199808e+00	1.199811e+00	1.199830e+00	2.422442e-04	1.199810e+00	1.199810e+00	2.230905e-04	
37	2.010000e-10	1.199833e+00	2.340813e-04	1.199825e+00	2.577763e-04	1.199831e+00	2.414847e-04	1.199808e+00	1.199811e+00	1.199830e+00	2.425278e-04	1.199811e+00	1.199811e+00	2.230832e-04	
38	2.030000e-10	1.199833e+00	2.338669e-04	1.199826e+00	2.574328e-04	1.199831e+00	2.413962e-04	1.199808e+00	1.199811e+00	1.199830e+00	2.426256e-04	1.199811e+00	1.199811e+00	2.230680e-04	
39	2.070000e-10	1.199833e+00	2.339785e-04	1.199826e+00	2.565835e-04	1.199831e+00	2.414356e-04	1.199809e+00	1.199811e+00	1.199830e+00	2.425304e-04	1.199811e+00	1.199811e+00	2.230428e-04	
40	2.150000e-10	1.199834e+00	2.338644e-04	1.199826e+00	2.555316e-04	1.199831e+00	2.413786e-04	1.199809e+00	1.199812e+00	1.199830e+00	2.425624e-04	1.199812e+00	1.199812e+00	2.230065e-04	
41	2.250000e-10	1.199834e+00	2.339373e-04	1.199826e+00	2.545918e-04	1.199831e+00	2.414007e-04	1.199809e+00	1.199812e+00	1.199830e+00	2.424828e-04	1.199812e+00	1.199812e+00	2.229798e-04	
42	2.350000e-10	1.199834e+00	2.338558e-04	1.199826e+00	2.541554e-04	1.199831e+00	2.413611e-04	1.199810e+00	1.199812e+00	1.199830e+00	2.425196e-04	1.199812e+00	1.199812e+00	2.229651e-04	
43	2.450000e-10	1.199834e+00	2.339191e-04	1.199826e+00	2.538048e-04	1.199831e+00	2.413831e-04	1.199810e+00	1.199812e+00	1.199831e+00	2.424648e-04	1.199812e+00	1.199812e+00	2.229572e-04	
44	2.550000e-10	1.199834e+00	2.338580e-04	1.199826e+00	2.536963e-04	1.199831e+00	2.413564e-04	1.199810e+00	1.199812e+00	1.199831e+00	2.425021e-04	1.199812e+00	1.199812e+00	2.229527e-04	
45	2.650000e-10	1.199834e+00	2.339098e-04	1.199826e+00	2.535455e-04	1.199831e+00	2.413748e-04	1.199810e+00	1.199812e+00	1.199831e+00	2.424606e-04	1.199812e+00	1.199812e+00	2.229504e-04	
46	2.750000e-10	1.199834e+00	2.338623e-04	1.199826e+00	2.535420e-04	1.199831e+00	2.413563e-04	1.199810e+00	1.199812e+00	1.199831e+00	2.424939e-04	1.199812e+00	1.199812e+00	2.229490e-04	
47	2.850000e-10	1.199834e+00	2.339038e-04	1.199826e+00	2.534612e-04	1.199831e+00	2.413704e-04	1.199810e+00	1.199812e+00	1.199831e+00	2.424609e-04	1.199812e+00	1.199812e+00	2.229483e-04	
48	2.950000e-10	1.199834e+00	2.338663e-04	1.199826e+00	2.534892e-04	1.199831e+00	2.413575e-04	1.199810e+00	1.199813e+00	1.199831e+00	2.424894e-04	1.199812e+00	1.199812e+00	2.229479e-04	
49	3.050000e-10	1.199834e+00	2.338996e-04	1.199826e+00	2.534347e-04	1.199831e+00	2.413676e-04	1.199810e+00	1.199813e+00	1.199831e+00	2.424624e-04	1.199812e+00	1.199812e+00	2.229477e-04	
50	3.150000e-10	1.199834e+00	2.338696e-04	1.199826e+00	2.534718e-04	1.199831e+00	2.413590e-04	1.199810e+00	1.199813e+00	1.199831e+00	2.424865e-04	1.199812e+00	1.199812e+00	2.229476e-04	
51	3.235972e-10	1.199834e+00	2.338962e-04	1.199826e+00	2.534332e-04	1.199831e+00	2.413656e-04	1.199810e+00	1.199813e+00	1.199831e+00	2.424643e-04	1.199812e+00	1.199812e+00	2.229475e-04	
52	3.250000e-10	1.199834e+00	2.338778e-04	1.199826e+00	2.534655e-04	1.199831e+00	2.413636e-04	1.199810e+00	1.199813e+00	1.199831e+00	2.424801e-04	1.199812e+00	1.199812e+00	2.229476e-04	
53	3.258734e-10	1.199834e+00	2.338826e-04	1.199826e+00	2.534534e-04	1.199831e+00	2.413621e-04	1.199810e+00	1.199813e+00	1.199831e+00	2.424758e-04	1.199812e+00	1.199812e+00	2.229475e-04	
54	3.276203e-10	1.199834e+00	2.338843e-04	1.199826e+00	2.534475e-04	1.199831e+00	2.413629e-04	1.199810e+00	1.199813e+00	1.199831e+00	2.424741e-04	1.199812e+00	1.199812e+00	2.229475e-04	
55	3.311140e-10	1.199834e+00	2.338833e-04	1.199826e+00	2.533994e-04	1.199831e+00	2.413625e-04	1.199810e+00	1.199813e+00	1.199831e+00	2.424752e-04	1.199812e+00	1.199812e+00	2.229475e-04	
56	3.381015e-10	1.199834e+00	2.338841e-04	1.199826e+00	2.530691e-04	1.199831e+00	2.413626e-04	1.199810e+00	1.199813e+00	1.199831e+00	2.424741e-04	1.199812e+00	1.199812e+00	2.229475e-04	
57	3.462961e-10	1.199834e+00	2.338839e-04	1.199826e+00	2.573646e-04	1.199831e+00	2.413635e-04	1.199810e+00	1.199813e+00	1.199831e+00	2.424757e-04	1.199812e+00	1.199812e+00	2.229475e-04	
58	3.537141e-10	1.199834e+00	2.338874e-04	1.199826e+00	2.756533e-04	1.199832e+00	2.413684e-04	1.199810e+00	1.199813e+00	1.199831e+00	2.424792e-04	1.199812e+00	1.199812e+00	2.229475e-04	
59	3.618278e-10	1.199832e+00	2.338610e-04	1.199826e+00	6.773473e-05	1.199828e+00	2.413166e-04	1.199810e+00	1.199813e+00	1.199828e+00	2.424382e-04	1.199812e+00	1.199812e+00	2.229475e-04	
60	3.701888e-10	1.199821e+00	2.337289e-04	1.199826e+00	-7.246348e-04	1.199813e+00	2.411040e-04	1.199810e+00	1.199813e+00	1.199814e+00	2.422526e-04	1.199812e+00	1.199812e+00	2.229474e-04	
61	3.780093e-10	1.199934e+00	2.350920e-04	1.199826e+00	1.005439e-02	1.200001e+00	2.438727e-04	1.199810e+00	1.199813e+00	1.199982e+00	2.444750e-04	1.199812e+00	1.199812e+00	2.229476e-04	
62	3.862534e-10	1.200933e+00	2.472776e-04	1.199826e+00	9.362245e-02	1.201452e+00	2.645233e-04	1.199810e+00	1.199813e+00	1.201326e+00	2.619810e-04	1.199813e+00	1.199813e+00	2.229492e-04	
63	3.945608e-10	1.200813e+00	2.448673e-04	1.199826e+00	2.973932e-01	1.199020e+00	2.239087e-04	1.199810e+00	1.199812e+00	1.199301e+00	2.324175e-04	1.199813e+00	1.199813e+00	2.229478e-04	
64	4.030677e-10	1.173805e+00	-8.992699e-05	1.199822e+00	5.468539e-01	1.152654e+00	-4.362956e-04	1.199804e+00	1.199806e+00	1.156686e+00	-3.225305e-04	1.199808e+00	1.199808e+00	2.228999e-04	
65	4.120637e-10	1.060584e+00	-9.678989e-04	1.199809e+00	7.489983e-01	9.706039e-01	6.440546e-05	1.199804e+00	1.199807e+00	9.843782e-01	-3.130609e-04	1.199804e+00	1.199804e+00	2.227879e-04	
66	4.216518e-10	8.235879e-01	1.087422e-02	1.199963e+00	8.893639e-01	6.271714e-01	4.448710e-02	1.200171e+00	1.200251e+00	6.500664e-01	3.569572e-02	1.200121e+00	1.200121e+00	2.244412e-04	
67	4.294543e-10	5.773197e-01	6.209631e-02	1.200643e+00	9.766906e-01	3.532724e-01	2.004184e-01	1.201065e+00	1.201272e+00	3.736819e-01	1.690247e-01	1.201100e+00	1.201100e+00	2.311632e-04	
68	4.373085e-10	3.551686e-01	2.111379e-01	1.201535e+00	1.043705e+00	1.863102e-01	4.737498e-01	1.191980e+00	1.189771e+00	1.983856e-01	4.187412e-01	1.194987e+00	1.194987e+00	2.416783e-04	
69	4.451601e-10	2.060844e-01	4.595528e-01	1.186765e+00	1.091967e+00	1.019895e-01	7.375281e-01	1.129321e+00	1.114627e+00	1.089975e-01	6.799090e-01	1.147058e+00	1.147058e+00	1.383517e-04	
70	4.538811e-10	1.105855e-01	7.398298e-01	1.095824e+00	1.130073e+00	4.994755e-02	9.306655e-01	9.407489e-01	9.014101e-01	5.364946e-02	8.830041e-01	9.831767e-01	9.831765e-01	-5.192742e-04	
71	4.605205e-10	6.798649e-02	8.969957e-01	9.435816e-01	1.149323e+00	3.083018e-02	1.032929e+00	7.443692e-01	6.926629e-01	3.279255e-02	9.894184e-01	7.905444e-01	7.905440e-01	-1.082466e-03	
72	4.668903e-10	4.306808e-02	1.000001e+00	7.452851e-01	1.163512e+00	1.968544e-02	1.102918e+00	5.774486e-01	5.296742e-01	2.118694e-02	1.068481e+00	6.101387e-01	6.101383e-01	3.782108e-03	
73	4.726745e-10	2.864061e-02	1.064979e+00	5.601135e-01	1.172558e+00	1.350205e-02	1.138731e+00	4.671386e-01	4.278065e-01	1.452532e-02	1.114553e+00	4.859756e-01	4.859753e-01	2.570932e-02	
74	4.790536e-10	1.826781e-02	1.113748e+00	3.977222e-01	1.180315e+00	8.771627e-03	1.164525e+00	3.802100e-01	3.440414e-01	9.560112e-03	1.147375e+00	3.904729e-01	3.904726e-01	9.831160e-02	
75	4.877549e-10	1.002582e-02	1.154141e+00	2.481778e-01	1.187324e+00	4.803988e-03	1.182200e+00	2.829721e-01	2.498383e-01	5.167938e-03	1.172816e+00	2.896110e-01	2.896107e-01	3.291290e-01	
76	4.968032e-10	5.292359e-03	1.175850e+00	1.450968e-01	1.192135e+00	2.632819e-03	1.191119e+00	1.968810e-01	1.723787e-01	2.882321e-03	1.185817e+00	2.028966e-01	2.028964e-01	6.654457e-01	
77	5.067826e-10	2.783032e-03	1.188044e+00	7.657679e-02	1.195234e+00	1.317993e-03	1.195173e+00	1.260897e-01	1.128764e-01	1.393511e-03	1.192578e+00	1.298833e-01	1.298831e-01	9.562347e-01	
78	5.167826e-10	1.414706e-03	1.193928e+00	4.118086e-02	1.197185e+00	8.204152e-04	1.197368e+00	7.984707e-02	7.196953e-02	8.868215e-04	1.195863e+00	8.141777e-02	8.141769e-02	1.099050e+00	
79	5.267826e-10	8.854845e-04	1.196935e+00	2.158825e-02	1.198235e+00	4.591832e-04	1.198313e+00	4.970045e-02	4.519107e-02	4.724696e-04	1.197586e+00	4.984142e-02	4.984137e-02	1.158205e+00	
80	5.367826e-10	4.990182e-04	1.198330e+00	1.150306e-02	1.198933e+00	4.237505e-04	1.198962e+00	3.114046e-02	2.827726e-02	4.436767e-04	1.198504e+00	3.064952e-02	3.064949e-02	1.182928e+00	
81	5.467826e-10	4.227481e-04	1.199109e+00	6.147693e-03	1.199271e+00	2.655047e-04	1.199278e+00	1.929044e-02	1.745657e-02	2.704940e-04	1.199066e+00	1.871272e-02	1.871270e-02	1.192821e+00	
82	5.567826e-10	2.807932e-04	1.199436e+00	3.233333e-03	1.199528e+00	3.259243e-04	1.199496e+00	1.208448e-02	1.101421e-02	3.300460e-04	1.199353e+00	1.148507e-02	1.148506e-02	1.196896e+00	
83	5.667826e-10	3.024650e-04	1.199654e+00	1.907725e-03	1.199626e+00	2.163453e-04	1.199628e+00	7.515925e-03	6.730059e-03	2.226389e-04	1.199563e+00	7.110171e-03	7.110163e-03	1.198599e+00	
84	5.767826e-10	2.299998e-04	1.199723e+00	9.783002e-04	1.199729e+00	2.952372e-04	1.199694e+00	4.757105e-03	4.389650e-03	2.922761e-04	1.199649e+00	4.381901e-03	4.381897e-03	1.199279e+00	
85	5.867826e-10	2.671591e-04	1.199792e+00	7.554809e-04	1.199747e+00	2.037261e-04	1.199761e+00	3.012956e-03	2.654454e-03	2.123560e-04	1.199738e+00	2.815318e-03	2.815314e-03	1.199608e+00	
86	5.967826e-10	2.202291e-04	1.199800e+00	3.778130e-04	1.199796e+00	2.826468e-04	1.199769e+00	1.965458e-03	1.867182e-03	2.760428e-04	1.199756e+00	1.761271e-03	1.761269e-03	1.199718e+00	
87	6.067826e-10	2.543816e-04	1.199826e+00	4.384652e-04	1.199789e+00	2.020336e-04	1.199810e+00	1.303197e-03	1.120710e-03	2.124338e-04	1.199800e+00	1.225497e-03	1.225496e-03	1.199797e+00	
88	6.167826e-10	2.204017e-04	1.199822e+00	2.264588e-04	1.199818e+00	2.758106e-04	1.199798e+00	9.078632e-04	9.068193e-04	2.672894e-04	1.199796e+00	7.977703e-04	7.977701e-04	1.199810e+00	
89	6.267826e-10	2.482879e-04	1.199834e+00	3.451509e-04	1.199804e+00	2.038320e-04	1.199828e+00	6.569346e-04	5.494631e-04	2.152930e-04	1.199822e+00	6.350791e-04	6.350782e-04	1.199834e+00	
90	6.367826e-10	2.226474e-04	1.199829e+00	1.951942e-04	1.199825e+00	2.710756e-04	1.199811e+00	5.086079e-04	5.385258e-04	2.616213e-04	1.199811e+00	4.456423e-04	4.456425e-04	1.199832e+00	
91	6.467826e-10	2.445977e-04	1.199836e+00	3.120205e-04	1.199809e+00	2.066759e-04	1.199834e+00	4.133676e-04	3.404954e-04	2.186285e-04	1.199830e+00	4.140535e-04	4.140530e-04	1.199842e+00	
92	6.567826e-10	2.249910e-04	1.199831e+00	1.948865e-04	1.199827e+00	2.672780e-04	1.199816e+00	3.582111e-04	3.945132e-04	2.574916e-04	1.199818e+00	3.186019e-04	3.186021e-04	1.199838e+00	
93	6.667826e-10	2.420314e-04	1.199836e+00	2.959087e-04	1.199811e+00	2.097015e-04	1.199835e+00	3.217580e-04	2.669966e-04	2.217376e-04	1.199832e+00	3.298801e-04	3.298797e-04	1.199843e+00	
94	6.767826e-10	2.269804e-04	1.199832e+00	2.016042e-04	1.199827e+00	2.640063e-04	1.199819e+00	3.016270e-04	3.358081e-04	2.542678e-04	1.199821e+00	2.740993e-04	2.740995e-04	1.199840e+00	
95	6.867826e-10	2.401309e-04	1.199835e+00	2.854476e-04	1.199812e+00	2.126011e-04	1.199835e+00	2.873620e-04	2.436040e-04	2.244411e-04	1.199832e+00	2.966870e-04	2.966867e-04	1.199843e+00	
96	6.967826e-10	2.285697e-04	1.199833e+00	2.090369e-04	1.199827e+00	2.611100e-04	1.199821e+00	2.803431e-04	3.099287e-04	2.516624e-04	1.199822e+00	2.596018e-04	2.596019e-04	1.199841e+00	
97	7.067826e-10	2.386886e-04	1.199835e+00	2.775518e-04	1.199812e+00	2.152745e-04	1.199834e+00	2.744745e-04	2.383317e-04	2.267328e-04	1.199831e+00	2.827145e-04	2.827143e-04	1.199843e+00	
98	7.167826e-10	2.298117e-04	1.199833e+00	2.156450e-04	1.199827e+00	2.585236e-04	1.199822e+00	2.723268e-04	2.970162e-04	2.495211e-04	1.199823e+00	2.558015e-04	2.558016e-04	1.199842e+00	
99	7.267826e-10	2.375843e-04	1.199835e+00	2.712679e-04	1.199812e+00	2.176986e-04	1.199833e+00	2.696631e-04	2.392753e-04	2.286570e-04	1.199831e+00	2.761715e-04	2.761713e-04	1.199842e+00	
100	7.367826e-10	2.307734e-04	1.199833e+00	2.211745e-04	1.199827e+00	2.562097e-04	1.199823e+00	2.692945e-04	2.895051e-04	2.477462e-04	1.199824e+00	2.556434e-04	2.556435e-04	1.199842e+00	
101	7.467826e-10	2.367362e-04	1.199835e+00	2.661957e-04	1.199813e+00	2.198794e-04	1.199832e+00	2.678807e-04	2.420628e-04	2.302676e-04	1.199830e+00	2.726436e-04	2.726435e-04	1.199842e+00	
102	7.567826e-10	2.315152e-04	1.199833e+00	2.257042e-04	1.199827e+00	2.541400e-04	1.199824e+00	2.681351e-04	2.844658e-04	2.462684e-04	1.199825e+00	2.565831e-04	2.565831e-04	1.199842e+00	
103	7.667826e-10	2.360846e-04	1.199834e+00	2.620920e-04	1.199813e+00	2.218336e-04	1.199832e+00	2.672322e-04	2.451355e-04	2.316148e-04	1.199830e+00	2.704490e-04	2.704489e-04	1.199842e+00	
104	7.767826e-10	2.320863e-04	1.199833e+00	2.293838e-04	1.199826e+00	2.522906e-04	1.199825e+00	2.676810e-04	2.807248e-04	2.450346e-04	1.199825e+00	2.577299e-04	2.577299e-04	1.199842e+00	
105	7.867826e-10	2.355838e-04	1.199834e+00	2.587739e-04	1.199813e+00	2.235807e-04	1.199831e+00	2.670067e-04	2.479767e-04	2.327423e-04	1.199829e+00	2.689235e-04	2.689234e-04	1.199842e+00	
106	7.967826e-10	2.325254e-04	1.199834e+00	2.323619e-04	1.199826e+00	2.506395e-04	1.199826e+00	2.674937e-04	2.777794e-04	2.440026e-04	1.199826e+00	2.587944e-04	2.587944e-04	1.199842e+00	
107	8.067826e-10	2.351991e-04	1.199834e+00	2.560935e-04	1.199813e+00	2.251403e-04	1.199831e+00	2.669375e-04	2.504495e-04	2.336866e-04	1.199829e+00	2.677869e-04	2.677868e-04	1.199842e+00	
108	8.167826e-10	2.328628e-04	1.199834e+00	2.347679e-04	1.199826e+00	2.491666e-04	1.199826e+00	2.674089e-04	2.753895e-04	2.431383e-04	1.199826e+00	2.597013e-04	2.597013e-04	1.199842e+00	
109	8.267826e-10	2.349037e-04	1.199834e+00	2.539296e-04	1.199813e+00	2.265313e-04	1.199830e+00	2.669249e-04	2.525498e-04	2.344783e-04	1.199829e+00	2.669076e-04	2.669076e-04	1.199842e+00	
110	8.367826e-10	2.331219e-04	1.199834e+00	2.367103e-04	1.199826e+00	2.478536e-04	1.199826e+00	2.673644e-04	2.734219e-04	2.424136e-04	1.199826e+00	2.604480e-04	2.604480e-04	1.199842e+00	
111	8.467826e-10	2.346770e-04	1.199834e+00	2.521834e-04	1.199813e+00	2.277710e-04	1.199830e+00	2.669316e-04	2.543152e-04	2.351424e-04	1.199828e+00	2.662146e-04	2.662145e-04	1.199842e+00	
112	8.567826e-10	2.333208e-04	1.199834e+00	2.382776e-04	1.199826e+00	2.466839e-04	1.199827e+00	2.673369e-04	2.717910e-04	2.418054e-04	1.199826e+00	2.610540e-04	2.610540e-04	1.199842e+00	
113	8.667826e-10	2.345030e-04	1.199834e+00	2.507747e-04	1.199814e+00	2.288751e-04	1.199829e+00	2.669441e-04	2.557924e-04	2.357002e-04	1.199828e+00	2.656633e-04	2.656633e-04	1.199842e+00	
114	8.767826e-10	2.334735e-04	1.199834e+00	2.395421e-04	1.199826e+00	2.456424e-04	1.199827e+00	2.673172e-04	2.704347e-04	2.412945e-04	1.199826e+00	2.615426e-04	2.615425e-04	1.199842e+00	
115	8.867826e-10	2.343696e-04	1.199834e+00	2.496384e-04	1.199814e+00	2.298581e-04	1.199829e+00	2.669573e-04	2.570262e-04	2.361689e-04	1.199828e+00	2.652230e-04	2.652229e-04	1.199842e+00	
116	8.967826e-10	2.335905e-04	1.199834e+00	2.405621e-04	1.199826e+00	2.447155e-04	1.199827e+00	2.673019e-04	2.693050e-04	2.408650e-04	1.199827e+00	2.619353e-04	2.619353e-04	1.199842e+00	
117	9.067826e-10	2.342674e-04	1.199834e+00	2.487218e-04	1.199814e+00	2.307327e-04	1.199829e+00	2.669695e-04	2.580559e-04	2.365631e-04	1.199828e+00	2.648704e-04	2.648704e-04	1.199842e+00	
118	9.167826e-10	2.336802e-04	1.199834e+00	2.413850e-04	1.199825e+00	2.438909e-04	1.199827e+00	2.672894e-04	2.683634e-04	2.405037e-04	1.199827e+00	2.622507e-04	2.622507e-04	1.199842e+00	
119	9.267826e-10	2.341891e-04	1.199834e+00	2.479825e-04	1.199814e+00	2.315106e-04	1.199829e+00	2.669804e-04	2.589150e-04	2.368950e-04	1.199828e+00	2.645879e-04	2.645879e-04	1.199842e+00	
120	9.367826e-10	2.337490e-04	1.199834e+00	2.420486e-04	1.199825e+00	2.431576e-04	1.199827e+00	2.672789e-04	2.675781e-04	2.401995e-04	1.199827e+00	2.625038e-04	2.625038e-04	1.199842e+00	
121	9.467826e-10	2.341293e-04	1.199834e+00	2.473862e-04	1.199814e+00	2.322023e-04	1.199829e+00	2.669899e-04	2.596319e-04	2.371744e-04	1.199828e+00	2.643614e-04	2.643614e-04	1.199842e+00	
122	9.567826e-10	2.338015e-04	1.199834e+00	2.425839e-04	1.199825e+00	2.425058e-04	1.199828e+00	2.672700e-04	2.669230e-04	2.399432e-04	1.199827e+00	2.627069e-04	2.627068e-04	1.199842e+00	
123	9.667826e-10	2.340835e-04	1.199834e+00	2.469053e-04	1.199814e+00	2.328170e-04	1.199829e+00	2.669981e-04	2.602302e-04	2.374100e-04	1.199828e+00	2.641798e-04	2.641798e-04	1.199842e+00	
124	9.767826e-10	2.338417e-04	1.199834e+00	2.430157e-04	1.199825e+00	2.419267e-04	1.199828e+00	2.672624e-04	2.663763e-04	2.397272e-04	1.199827e+00	2.628698e-04	2.628698e-04	1.199842e+00	
125	9.867826e-10	2.340486e-04	1.199834e+00	2.465175e-04	1.199814e+00	2.333631e-04	1.199829e+00	2.670051e-04	2.607296e-04	2.376086e-04	1.199828e+00	2.640341e-04	2.640340e-04	1.199842e+00	
126	9.967826e-10	2.338724e-04	1.199834e+00	2.433638e-04	1.199825e+00	2.414122e-04	1.199828e+00	2.672559e-04	2.659199e-04	2.395450e-04	1.199827e+00	2.630006e-04	2.630006e-04	1.199842e+00	
127	1.006783e-09	2.340221e-04	1.199834e+00	2.462049e-04	1.199814e+00	2.338482e-04	1.199829e+00	2.670112e-04	2.611466e-04	2.377763e-04	1.199828e+00	2.639172e-04	2.639171e-04	1.199842e+00	
128	1.016783e-09	2.338958e-04	1.199834e+00	2.436445e-04	1.199825e+00	2.409554e-04	1.199828e+00	2.672504e-04	2.655389e-04	2.393911e-04	1.199827e+00	2.631056e-04	2.631056e-04	1.199842e+00	
129	1.026783e-09	2.340019e-04	1.199834e+00	2.459528e-04	1.199814e+00	2.342788e-04	1.199828e+00	2.670164e-04	2.614949e-04	2.379178e-04	1.199828e+00	2.638233e-04	2.638233e-04	1.199842e+00	
130	1.036783e-09	2.339136e-04	1.199834e+00	2.438709e-04	1.199825e+00	2.405499e-04	1.199828e+00	2.672457e-04	2.652206e-04	2.392613e-04	1.199827e+00	2.631899e-04	2.631899e-04	1.199842e+00	
131	1.046783e-09	2.339866e-04	1.199834e+00	2.457496e-04	1.199815e+00	2.346611e-04	1.199828e+00	2.670209e-04	2.617858e-04	2.380374e-04	1.199828e+00	2.637480e-04	2.637480e-04	1.199842e+00	
132	1.056783e-09	2.339271e-04	1.199834e+00	2.440533e-04	1.199825e+00	2.401900e-04	1.199828e+00	2.672416e-04	2.649547e-04	2.391515e-04	1.199827e+00	2.632576e-04	2.632575e-04	1.199842e+00	
133	1.066783e-09	2.339750e-04	1.199834e+00	2.455859e-04	1.199815e+00	2.350002e-04	1.199828e+00	2.670247e-04	2.620290e-04	2.381386e-04	1.199828e+00	2.636876e-04	2.636876e-04	1.199842e+00	
134	1.076783e-09	2.339373e-04	1.199834e+00	2.442003e-04	1.199824e+00	2.398707e-04	1.199828e+00	2.672382e-04	2.647324e-04	2.390587e-04	1.199827e+00	2.633119e-04	2.633119e-04	1.199842e+00	
135	1.086783e-09	2.339663e-04	1.199834e+00	2.454541e-04	1.199815e+00	2.353011e-04	1.199828e+00	2.670281e-04	2.622324e-04	2.382241e-04	1.199828e+00	2.636391e-04	2.636390e-04	1.199842e+00	
136	1.096783e-09	2.339450e-04	1.199834e+00	2.443187e-04	1.199824e+00	2.395876e-04	1.199828e+00	2.672352e-04	2.645465e-04	2.389802e-04	1.199827e+00	2.633556e-04	2.633556e-04	1.199842e+00	
137	1.106783e-09	2.339598e-04	1.199834e+00	2.453479e-04	1.199815e+00	2.355679e-04	1.199828e+00	2.670310e-04	2.624026e-04	2.382965e-04	1.199828e+00	2.636001e-04	2.636001e-04	1.199842e+00	
138	1.116783e-09	2.339508e-04	1.199834e+00	2.444140e-04	1.199824e+00	2.393366e-04	1.199828e+00	2.672326e-04	2.643910e-04	2.389138e-04	1.199827e+00	2.633907e-04	2.633907e-04	1.199842e+00	
139	1.126783e-09	2.339550e-04	1.199834e+00	2.452624e-04	1.199815e+00	2.358044e-04	1.199828e+00	2.670336e-04	2.625450e-04	2.383578e-04	1.199828e+00	2.635688e-04	2.635688e-04	1.199842e+00	
140	1.136783e-09	2.339551e-04	1.199834e+00	2.444907e-04	1.199824e+00	2.391141e-04	1.199828e+00	2.672304e-04	2.642607e-04	2.388576e-04	1.199827e+00	2.634189e-04	2.634189e-04	1.199842e+00	
141	1.146783e-09	2.339515e-04	1.199834e+00	2.451937e-04	1.199815e+00	2.360140e-04	1.199828e+00	2.670358e-04	2.626643e-04	2.384097e-04	1.199828e+00	2.635437e-04	2.635436e-04	1.199842e+00	
142	1.156783e-09	2.339583e-04	1.199834e+00	2.445525e-04	1.199824e+00	2.389169e-04	1.199828e+00	2.672284e-04	2.641516e-04	2.388100e-04	1.199827e+00	2.634416e-04	2.634415e-04	1.199842e+00	
143	1.166783e-09	2.339489e-04	1.199834e+00	2.451384e-04	1.199815e+00	2.361998e-04	1.199828e+00	2.670377e-04	2.627644e-04	2.384536e-04	1.199828e+00	2.635235e-04	2.635234e-04	1.199842e+00	
144	1.176783e-09	2.339606e-04	1.199834e+00	2.446021e-04	1.199824e+00	2.387422e-04	1.199828e+00	2.672267e-04	2.640601e-04	2.387697e-04	1.199827e+00	2.634598e-04	2.634598e-04	1.199842e+00	
145	1.186783e-09	2.339471e-04	1.199834e+00	2.450940e-04	1.199815e+00	2.363643e-04	1.199828e+00	2.670395e-04	2.628483e-04	2.384909e-04	1.199828e+00	2.635072e-04	2.635072e-04	1.199842e+00	
146	1.196783e-09	2.339623e-04	1.199834e+00	2.446420e-04	1.199824e+00	2.385876e-04	1.199828e+00	2.672253e-04	2.639833e-04	2.387355e-04	1.199827e+00	2.634745e-04	2.634744e-04	1.199842e+00	
147	1.206783e-09	2.339459e-04	1.199834e+00	2.450584e-04	1.199815e+00	2.365100e-04	1.199828e+00	2.670410e-04	2.629189e-04	2.385225e-04	1.199828e+00	2.634942e-04	2.634942e-04	1.199842e+00	
148	1.216783e-09	2.339634e-04	1.199834e+00	2.446739e-04	1.199824e+00	2.384507e-04	1.199828e+00	2.672239e-04	2.639187e-04	2.387066e-04	1.199827e+00	2.634863e-04	2.634862e-04	1.199842e+00	
149	1.226783e-09	2.339451e-04	1.199834e+00	2.450299e-04	1.199815e+00	2.366390e-04	1.199828e+00	2.670424e-04	2.629781e-04	2.385493e-04	1.199828e+00	2.634837e-04	2.634837e-04	1.199842e+00	
150	1.236783e-09	2.339643e-04	1.199834e+00	2.446996e-04	1.199824e+00	2.383295e-04	1.199828e+00	2.672228e-04	2.638645e-04	2.386821e-04	1.199827e+00	2.634958e-04	2.634957e-04	1.199842e+00	
151	1.246783e-09	2.339446e-04	1.199834e+00	2.450070e-04	1.199816e+00	2.367531e-04	1.199828e+00	2.670436e-04	2.630281e-04	2.385720e-04	1.199828e+00	2.634753e-04	2.634753e-04	1.199842e+00	
152	1.256783e-09	2.339648e-04	1.199834e+00	2.447201e-04	1.199824e+00	2.382222e-04	1.199828e+00	2.672217e-04	2.638188e-04	2.386613e-04	1.199827e+00	2.635034e-04	2.635034e-04	1.199842e+00	
153	1.266783e-09	2.339443e-04	1.199834e+00	2.449888e-04	1.199816e+00	2.368541e-04	1.199828e+00	2.670448e-04	2.630702e-04	2.385913e-04	1.199828e+00	2.634686e-04	2.634686e-04	1.199842e+00	
154	1.276783e-09	2.339651e-04	1.199834e+00	2.447365e-04	1.199824e+00	2.381274e-04	1.199828e+00	2.672208e-04	2.637802e-04	2.386437e-04	1.199827e+00	2.635096e-04	2.635095e-04	1.199842e+00	
155	1.286783e-09	2.339442e-04	1.199834e+00	2.449742e-04	1.199816e+00	2.369434e-04	1.199828e+00	2.670458e-04	2.631057e-04	2.386076e-04	1.199828e+00	2.634632e-04	2.634632e-04	1.199842e+00	
156	1.296783e-09	2.339653e-04	1.199834e+00	2.447496e-04	1.199823e+00	2.380435e-04	1.199828e+00	2.672199e-04	2.637477e-04	2.386289e-04	1.199827e+00	2.635145e-04	2.635145e-04	1.199842e+00	
157	1.306783e-09	2.339443e-04	1.199834e+00	2.449626e-04	1.199816e+00	2.370224e-04	1.199828e+00	2.670468e-04	2.631358e-04	2.386214e-04	1.199828e+00	2.634589e-04	2.634588e-04	1.199842e+00	
158	1.316783e-09	2.339653e-04	1.199834e+00	2.447600e-04	1.199823e+00	2.379694e-04	1.199828e+00	2.672192e-04	2.637201e-04	2.386163e-04	1.199827e+00	2.635185e-04	2.635184e-04	1.199842e+00	
159	1.326783e-09	2.339444e-04	1.199834e+00	2.449534e-04	1.199816e+00	2.370922e-04	1.199828e+00	2.670476e-04	2.631613e-04	2.386331e-04	1.199828e+00	2.634554e-04	2.634554e-04	1.199842e+00	
160	1.336783e-09	2.339653e-04	1.199834e+00	2.447683e-04	1.199823e+00	2.379039e-04	1.199828e+00	2.672185e-04	2.636967e-04	2.386056e-04	1.199827e+00	2.635217e-04	2.635216e-04	1.199842e+00	
161	1.346783e-09	2.339446e-04	1.199834e+00	2.449461e-04	1.199816e+00	2.371539e-04	1.199828e+00	2.670485e-04	2.631829e-04	2.386430e-04	1.199828e+00	2.634526e-04	2.634526e-04	1.199842e+00	
162	1.356783e-09	2.339652e-04	1.199834e+00	2.447749e-04	1.199823e+00	2.378461e-04	1.199828e+00	2.672178e-04	2.636769e-04	2.385966e-04	1.199827e+00	2.635242e-04	2.635242e-04	1.199842e+00	
163	1.366783e-09	2.339449e-04	1.199834e+00	2.449404e-04	1.199816e+00	2.372084e-04	1.199828e+00	2.670492e-04	2.632014e-04	2.386514e-04	1.199828e+00	2.634504e-04	2.634504e-04	1.199842e+00	
[...]
48	2.950000e-10	2.229409e-04	2.229409e-04	2.230198e-04	2.230073e-04	2.230073e-04	2.230070e-04	2.230070e-04	
49	3.050000e-10	2.229408e-04	2.229408e-04	2.230196e-04	2.230069e-04	2.230069e-04	2.230067e-04	2.230067e-04	
50	3.150000e-10	2.229407e-04	2.229407e-04	2.230195e-04	2.230066e-04	2.230066e-04	2.230066e-04	2.230066e-04	
51	3.235972e-10	2.229407e-04	2.229407e-04	2.230194e-04	2.230065e-04	2.230065e-04	2.230065e-04	2.230065e-04	
52	3.250000e-10	2.229407e-04	2.229407e-04	2.230194e-04	2.230065e-04	2.230065e-04	2.230065e-04	2.230065e-04	
53	3.258734e-10	2.229407e-04	2.229407e-04	2.230194e-04	2.230065e-04	2.230065e-04	2.230065e-04	2.230065e-04	
54	3.276203e-10	2.229407e-04	2.229407e-04	2.230194e-04	2.230064e-04	2.230064e-04	2.230065e-04	2.230065e-04	
55	3.311140e-10	2.229407e-04	2.229407e-04	2.230194e-04	2.230064e-04	2.230064e-04	2.230065e-04	2.230065e-04	
56	3.381015e-10	2.229407e-04	2.229407e-04	2.230193e-04	2.230064e-04	2.230064e-04	2.230065e-04	2.230065e-04	
57	3.462961e-10	2.229407e-04	2.229407e-04	2.230193e-04	2.230063e-04	2.230063e-04	2.230064e-04	2.230064e-04	
58	3.537141e-10	2.229407e-04	2.229407e-04	2.230193e-04	2.230063e-04	2.230063e-04	2.230064e-04	2.230064e-04	
59	3.618278e-10	2.229407e-04	2.229407e-04	2.230193e-04	2.230063e-04	2.230063e-04	2.230064e-04	2.230064e-04	
60	3.701888e-10	2.229407e-04	2.229407e-04	2.230193e-04	2.230062e-04	2.230062e-04	2.230064e-04	2.230064e-04	
61	3.780093e-10	2.229408e-04	2.229408e-04	2.230196e-04	2.230064e-04	2.230064e-04	2.230067e-04	2.230067e-04	
62	3.862534e-10	2.229422e-04	2.229422e-04	2.230224e-04	2.230084e-04	2.230084e-04	2.230094e-04	2.230094e-04	
63	3.945608e-10	2.229429e-04	2.229429e-04	2.230189e-04	2.230065e-04	2.230065e-04	2.230063e-04	2.230063e-04	
64	4.030677e-10	2.229071e-04	2.229071e-04	2.229291e-04	2.229446e-04	2.229446e-04	2.229209e-04	2.229209e-04	
65	4.120637e-10	2.227852e-04	2.227852e-04	2.229419e-04	2.229367e-04	2.229367e-04	2.228839e-04	2.228839e-04	
66	4.216518e-10	2.240338e-04	2.240338e-04	2.288265e-04	2.270209e-04	2.270209e-04	2.282993e-04	2.282993e-04	
67	4.294543e-10	2.300006e-04	2.300006e-04	2.423561e-04	2.371209e-04	2.371209e-04	2.440952e-04	2.440952e-04	
68	4.373085e-10	2.392397e-04	2.392397e-04	8.927276e-05	1.359386e-04	1.359386e-04	1.326785e-04	1.326784e-04	
69	4.451601e-10	1.224767e-04	1.224767e-04	-8.697550e-04	-5.228931e-04	-5.228931e-04	-6.745449e-04	-6.745451e-04	
70	4.538811e-10	-5.753840e-04	-5.753840e-04	1.433474e-03	1.925551e-03	1.925551e-03	-3.276810e-04	-3.276735e-04	
71	4.605205e-10	-1.653299e-04	-1.653299e-04	2.448901e-02	1.994172e-02	1.994172e-02	1.649446e-02	1.649449e-02	
72	4.668903e-10	1.002359e-02	1.002359e-02	9.960988e-02	8.126966e-02	8.126966e-02	7.907030e-02	7.907042e-02	
73	4.726745e-10	4.613932e-02	4.613932e-02	2.421615e-01	1.987005e-01	1.987005e-01	2.103797e-01	2.103800e-01	
74	4.790536e-10	1.491192e-01	1.491192e-01	4.805655e-01	3.904067e-01	3.904067e-01	4.489662e-01	4.489665e-01	
75	4.877549e-10	4.061799e-01	4.061799e-01	8.188443e-01	6.697198e-01	6.697198e-01	8.057645e-01	8.057646e-01	
76	4.968032e-10	7.073973e-01	7.073973e-01	1.049610e+00	8.907108e-01	8.907108e-01	1.053135e+00	1.053135e+00	
77	5.067826e-10	9.395079e-01	9.395079e-01	1.153410e+00	1.035252e+00	1.035252e+00	1.158677e+00	1.158677e+00	
78	5.167826e-10	1.065015e+00	1.065015e+00	1.184966e+00	1.113718e+00	1.113718e+00	1.187267e+00	1.187267e+00	
79	5.267826e-10	1.131311e+00	1.131311e+00	1.194783e+00	1.154903e+00	1.154903e+00	1.195733e+00	1.195733e+00	
80	5.367826e-10	1.164975e+00	1.164975e+00	1.197639e+00	1.176455e+00	1.176455e+00	1.197895e+00	1.197895e+00	
81	5.467826e-10	1.182238e+00	1.182238e+00	1.198819e+00	1.187628e+00	1.187628e+00	1.198954e+00	1.198954e+00	
82	5.567826e-10	1.190926e+00	1.190926e+00	1.199242e+00	1.193449e+00	1.193449e+00	1.199275e+00	1.199275e+00	
83	5.667826e-10	1.195340e+00	1.195340e+00	1.199514e+00	1.196481e+00	1.196481e+00	1.199552e+00	1.199552e+00	
84	5.767826e-10	1.197568e+00	1.197568e+00	1.199631e+00	1.198061e+00	1.198061e+00	1.199643e+00	1.199643e+00	
85	5.867826e-10	1.198691e+00	1.198691e+00	1.199722e+00	1.198898e+00	1.198898e+00	1.199738e+00	1.199738e+00	
86	5.967826e-10	1.199263e+00	1.199263e+00	1.199763e+00	1.199332e+00	1.199332e+00	1.199769e+00	1.199769e+00	
87	6.067826e-10	1.199547e+00	1.199547e+00	1.199797e+00	1.199570e+00	1.199570e+00	1.199804e+00	1.199804e+00	
88	6.167826e-10	1.199695e+00	1.199695e+00	1.199812e+00	1.199691e+00	1.199691e+00	1.199815e+00	1.199815e+00	
89	6.267826e-10	1.199766e+00	1.199766e+00	1.199825e+00	1.199761e+00	1.199761e+00	1.199828e+00	1.199828e+00	
90	6.367826e-10	1.199805e+00	1.199805e+00	1.199831e+00	1.199795e+00	1.199795e+00	1.199832e+00	1.199832e+00	
91	6.467826e-10	1.199822e+00	1.199822e+00	1.199836e+00	1.199818e+00	1.199818e+00	1.199837e+00	1.199837e+00	
92	6.567826e-10	1.199833e+00	1.199833e+00	1.199838e+00	1.199827e+00	1.199827e+00	1.199838e+00	1.199838e+00	
93	6.667826e-10	1.199837e+00	1.199837e+00	1.199840e+00	1.199834e+00	1.199834e+00	1.199840e+00	1.199840e+00	
94	6.767826e-10	1.199840e+00	1.199840e+00	1.199840e+00	1.199837e+00	1.199837e+00	1.199840e+00	1.199840e+00	
95	6.867826e-10	1.199841e+00	1.199841e+00	1.199841e+00	1.199840e+00	1.199840e+00	1.199842e+00	1.199842e+00	
96	6.967826e-10	1.199842e+00	1.199842e+00	1.199841e+00	1.199840e+00	1.199840e+00	1.199841e+00	1.199841e+00	
97	7.067826e-10	1.199842e+00	1.199842e+00	1.199842e+00	1.199841e+00	1.199841e+00	1.199842e+00	1.199842e+00	
98	7.167826e-10	1.199842e+00	1.199842e+00	1.199842e+00	1.199841e+00	1.199841e+00	1.199842e+00	1.199842e+00	
99	7.267826e-10	1.199842e+00	1.199842e+00	1.199842e+00	1.199842e+00	1.199842e+00	1.199842e+00	1.199842e+00	
100	7.367826e-10	1.199842e+00	1.199842e+00	1.199842e+00	1.199842e+00	1.199842e+00	1.199842e+00	1.199842e+00	
101	7.467826e-10	1.199842e+00	1.199842e+00	1.199842e+00	1.199842e+00	1.199842e+00	1.199842e+00	1.199842e+00	
102	7.567826e-10	1.199842e+00	1.199842e+00	1.199842e+00	1.199842e+00	1.199842e+00	1.199842e+00	1.199842e+00	
103	7.667826e-10	1.199842e+00	1.199842e+00	1.199842e+00	1.199842e+00	1.199842e+00	1.199842e+00	1.199842e+00	
104	7.767826e-10	1.199842e+00	1.199842e+00	1.199842e+00	1.199842e+00	1.199842e+00	1.199842e+00	1.199842e+00	
105	7.867826e-10	1.199842e+00	1.199842e+00	1.199842e+00	1.199842e+00	1.199842e+00	1.199842e+00	1.199842e+00	
106	7.967826e-10	1.199842e+00	1.199842e+00	1.199842e+00	1.199842e+00	1.199842e+00	1.199842e+00	1.199842e+00	
107	8.067826e-10	1.199842e+00	1.199842e+00	1.199842e+00	1.199842e+00	1.199842e+00	1.199842e+00	1.199842e+00	
108	8.167826e-10	1.199842e+00	1.199842e+00	1.199842e+00	1.199842e+00	1.199842e+00	1.199842e+00	1.199842e+00	
109	8.267826e-10	1.199842e+00	1.199842e+00	1.199842e+00	1.199842e+00	1.199842e+00	1.199842e+00	1.199842e+00	
110	8.367826e-10	1.199842e+00	1.199842e+00	1.199842e+00	1.199842e+00	1.199842e+00	1.199842e+00	1.199842e+00	
111	8.467826e-10	1.199842e+00	1.199842e+00	1.199842e+00	1.199842e+00	1.199842e+00	1.199842e+00	1.199842e+00	
112	8.567826e-10	1.199842e+00	1.199842e+00	1.199842e+00	1.199842e+00	1.199842e+00	1.199842e+00	1.199842e+00	
113	8.667826e-10	1.199842e+00	1.199842e+00	1.199842e+00	1.199842e+00	1.199842e+00	1.199842e+00	1.199842e+00	
114	8.767826e-10	1.199842e+00	1.199842e+00	1.199842e+00	1.199842e+00	1.199842e+00	1.199842e+00	1.199842e+00	
115	8.867826e-10	1.199842e+00	1.199842e+00	1.199842e+00	1.199842e+00	1.199842e+00	1.199842e+00	1.199842e+00	
116	8.967826e-10	1.199842e+00	1.199842e+00	1.199842e+00	1.199842e+00	1.199842e+00	1.199842e+00	1.199842e+00	
117	9.067826e-10	1.199842e+00	1.199842e+00	1.199842e+00	1.199842e+00	1.199842e+00	1.199842e+00	1.199842e+00	
118	9.167826e-10	1.199842e+00	1.199842e+00	1.199842e+00	1.199842e+00	1.199842e+00	1.199842e+00	1.199842e+00	
119	9.267826e-10	1.199842e+00	1.199842e+00	1.199842e+00	1.199842e+00	1.199842e+00	1.199842e+00	1.199842e+00	
120	9.367826e-10	1.199842e+00	1.199842e+00	1.199842e+00	1.199842e+00	1.199842e+00	1.199842e+00	1.199842e+00	
121	9.467826e-10	1.199842e+00	1.199842e+00	1.199842e+00	1.199842e+00	1.199842e+00	1.199842e+00	1.199842e+00	
122	9.567826e-10	1.199842e+00	1.199842e+00	1.199842e+00	1.199842e+00	1.199842e+00	1.199842e+00	1.199842e+00	
123	9.667826e-10	1.199842e+00	1.199842e+00	1.199842e+00	1.199842e+00	1.199842e+00	1.199842e+00	1.199842e+00	
124	9.767826e-10	1.199842e+00	1.199842e+00	1.199842e+00	1.199842e+00	1.199842e+00	1.199842e+00	1.199842e+00	
125	9.867826e-10	1.199842e+00	1.199842e+00	1.199842e+00	1.199842e+00	1.199842e+00	1.199842e+00	1.199842e+00	
126	9.967826e-10	1.199842e+00	1.199842e+00	1.199842e+00	1.199842e+00	1.199842e+00	1.199842e+00	1.199842e+00	
127	1.006783e-09	1.199842e+00	1.199842e+00	1.199842e+00	1.199842e+00	1.199842e+00	1.199842e+00	1.199842e+00	
128	1.016783e-09	1.199842e+00	1.199842e+00	1.199842e+00	1.199842e+00	1.199842e+00	1.199842e+00	1.199842e+00	
129	1.026783e-09	1.199842e+00	1.199842e+00	1.199842e+00	1.199842e+00	1.199842e+00	1.199842e+00	1.199842e+00	
130	1.036783e-09	1.199842e+00	1.199842e+00	1.199842e+00	1.199842e+00	1.199842e+00	1.199842e+00	1.199842e+00	
131	1.046783e-09	1.199842e+00	1.199842e+00	1.199842e+00	1.199842e+00	1.199842e+00	1.199842e+00	1.199842e+00	
132	1.056783e-09	1.199842e+00	1.199842e+00	1.199842e+00	1.199842e+00	1.199842e+00	1.199842e+00	1.199842e+00	
133	1.066783e-09	1.199842e+00	1.199842e+00	1.199842e+00	1.199842e+00	1.199842e+00	1.199842e+00	1.199842e+00	
134	1.076783e-09	1.199842e+00	1.199842e+00	1.199842e+00	1.199842e+00	1.199842e+00	1.199842e+00	1.199842e+00	
135	1.086783e-09	1.199842e+00	1.199842e+00	1.199842e+00	1.199842e+00	1.199842e+00	1.199842e+00	1.199842e+00	
136	1.096783e-09	1.199842e+00	1.199842e+00	1.199842e+00	1.199842e+00	1.199842e+00	1.199842e+00	1.199842e+00	
137	1.106783e-09	1.199842e+00	1.199842e+00	1.199842e+00	1.199842e+00	1.199842e+00	1.199842e+00	1.199842e+00	
138	1.116783e-09	1.199842e+00	1.199842e+00	1.199842e+00	1.199842e+00	1.199842e+00	1.199842e+00	1.199842e+00	
139	1.126783e-09	1.199842e+00	1.199842e+00	1.199842e+00	1.199842e+00	1.199842e+00	1.199842e+00	1.199842e+00	
140	1.136783e-09	1.199842e+00	1.199842e+00	1.199842e+00	1.199842e+00	1.199842e+00	1.199842e+00	1.199842e+00	
141	1.146783e-09	1.199842e+00	1.199842e+00	1.199842e+00	1.199842e+00	1.199842e+00	1.199842e+00	1.199842e+00	
142	1.156783e-09	1.199842e+00	1.199842e+00	1.199842e+00	1.199842e+00	1.199842e+00	1.199842e+00	1.199842e+00	
143	1.166783e-09	1.199842e+00	1.199842e+00	1.199842e+00	1.199842e+00	1.199842e+00	1.199842e+00	1.199842e+00	
144	1.176783e-09	1.199842e+00	1.199842e+00	1.199842e+00	1.199842e+00	1.199842e+00	1.199842e+00	1.199842e+00	
145	1.186783e-09	1.199842e+00	1.199842e+00	1.199842e+00	1.199842e+00	1.199842e+00	1.199842e+00	1.199842e+00	
146	1.196783e-09	1.199842e+00	1.199842e+00	1.199842e+00	1.199842e+00	1.199842e+00	1.199842e+00	1.199842e+00	
147	1.206783e-09	1.199842e+00	1.199842e+00	1.199842e+00	1.199842e+00	1.199842e+00	1.199842e+00	1.199842e+00	
148	1.216783e-09	1.199842e+00	1.199842e+00	1.199842e+00	1.199842e+00	1.199842e+00	1.199842e+00	1.199842e+00	
149	1.226783e-09	1.199842e+00	1.199842e+00	1.199842e+00	1.199842e+00	1.199842e+00	1.199842e+00	1.199842e+00	
150	1.236783e-09	1.199842e+00	1.199842e+00	1.199842e+00	1.199842e+00	1.199842e+00	1.199842e+00	1.199842e+00	
151	1.246783e-09	1.199842e+00	1.199842e+00	1.199842e+00	1.199842e+00	1.199842e+00	1.199842e+00	1.199842e+00	
152	1.256783e-09	1.199842e+00	1.199842e+00	1.199842e+00	1.199842e+00	1.199842e+00	1.199842e+00	1.199842e+00	
153	1.266783e-09	1.199842e+00	1.199842e+00	1.199842e+00	1.199842e+00	1.199842e+00	1.199842e+00	1.199842e+00	
154	1.276783e-09	1.199842e+00	1.199842e+00	1.199842e+00	1.199842e+00	1.199842e+00	1.199842e+00	1.199842e+00	
155	1.286783e-09	1.199842e+00	1.199842e+00	1.199842e+00	1.199842e+00	1.199842e+00	1.199842e+00	1.199842e+00	
156	1.296783e-09	1.199842e+00	1.199842e+00	1.199842e+00	1.199842e+00	1.199842e+00	1.199842e+00	1.199842e+00	
157	1.306783e-09	1.199842e+00	1.199842e+00	1.199842e+00	1.199842e+00	1.199842e+00	1.199842e+00	1.199842e+00	
158	1.316783e-09	1.199842e+00	1.199842e+00	1.199842e+00	1.199842e+00	1.199842e+00	1.199842e+00	1.199842e+00	
159	1.326783e-09	1.199842e+00	1.199842e+00	1.199842e+00	1.199842e+00	1.199842e+00	1.199842e+00	1.199842e+00	
160	1.336783e-09	1.199842e+00	1.199842e+00	1.199842e+00	1.199842e+00	1.199842e+00	1.199842e+00	1.199842e+00	
161	1.346783e-09	1.199842e+00	1.199842e+00	1.199842e+00	1.199842e+00	1.199842e+00	1.199842e+00	1.199842e+00	
162	1.356783e-09	1.199842e+00	1.199842e+00	1.199842e+00	1.199842e+00	1.199842e+00	1.199842e+00	1.199842e+00	
163	1.366783e-09	1.199842e+00	1.199842e+00	1.199842e+00	1.199842e+00	1.199842e+00	1.199842e+00	1.199842e+00	
164	1.376783e-09	1.199842e+00	1.199842e+00	1.199842e+00	1.199842e+00	1.199842e+00	1.199842e+00	1.199842e+00	
165	1.386783e-09	1.199842e+00	1.199842e+00	1.199842e+00	1.199842e+00	1.199842e+00	1.199842e+00	1.199842e+00	
166	1.396783e-09	1.199842e+00	1.199842e+00	1.199842e+00	1.199842e+00	1.199842e+00	1.199842e+00	1.199842e+00	
167	1.406783e-09	1.199842e+00	1.199842e+00	1.199842e+00	1.199842e+00	1.199842e+00	1.199842e+00	1.199842e+00	
168	1.416783e-09	1.199842e+00	1.199842e+00	1.199842e+00	1.199842e+00	1.199842e+00	1.199842e+00	1.199842e+00	
169	1.426783e-09	1.199842e+00	1.199842e+00	1.199842e+00	1.199842e+00	1.199842e+00	1.199842e+00	1.199842e+00	
170	1.436783e-09	1.199842e+00	1.199842e+00	1.199842e+00	1.199842e+00	1.199842e+00	1.199842e+00	1.199842e+00	
171	1.446783e-09	1.199842e+00	1.199842e+00	1.199842e+00	1.199842e+00	1.199842e+00	1.199842e+00	1.199842e+00	
172	1.456783e-09	1.199842e+00	1.199842e+00	1.199842e+00	1.199842e+00	1.199842e+00	1.199842e+00	1.199842e+00	
173	1.466783e-09	1.199842e+00	1.199842e+00	1.199842e+00	1.199842e+00	1.199842e+00	1.199842e+00	1.199842e+00	
174	1.476783e-09	1.199842e+00	1.199842e+00	1.199842e+00	1.199842e+00	1.199842e+00	1.199842e+00	1.199842e+00	
175	1.486783e-09	1.199842e+00	1.199842e+00	1.199842e+00	1.199842e+00	1.199842e+00	1.199842e+00	1.199842e+00	
176	1.496783e-09	1.199842e+00	1.199842e+00	1.199842e+00	1.199842e+00	1.199842e+00	1.199842e+00	1.199842e+00	
177	1.506783e-09	1.199842e+00	1.199842e+00	1.199842e+00	1.199842e+00	1.199842e+00	1.199842e+00	1.199842e+00	
178	1.516783e-09	1.199842e+00	1.199842e+00	1.199842e+00	1.199842e+00	1.199842e+00	1.199842e+00	1.199842e+00	
179	1.526783e-09	1.199842e+00	1.199842e+00	1.199842e+00	1.199842e+00	1.199842e+00	1.199842e+00	1.199842e+00	
180	1.536783e-09	1.199842e+00	1.199842e+00	1.199842e+00	1.199842e+00	1.199842e+00	1.199842e+00	1.199842e+00	
181	1.546783e-09	1.199842e+00	1.199842e+00	1.199842e+00	1.199842e+00	1.199842e+00	1.199842e+00	1.199842e+00	
182	1.556783e-09	1.199842e+00	1.199842e+00	1.199842e+00	1.199842e+00	1.199842e+00	1.199842e+00	1.199842e+00	
183	1.566783e-09	1.199842e+00	1.199842e+00	1.199842e+00	1.199842e+00	1.199842e+00	1.199842e+00	1.199842e+00	
184	1.576783e-09	1.199842e+00	1.199842e+00	1.199842e+00	1.199842e+00	1.199842e+00	1.199842e+00	1.199842e+00	
185	1.586783e-09	1.199842e+00	1.199842e+00	1.199842e+00	1.199842e+00	1.199842e+00	1.199842e+00	1.199842e+00	
186	1.596783e-09	1.199842e+00	1.199842e+00	1.199842e+00	1.199842e+00	1.199842e+00	1.199842e+00	1.199842e+00	
187	1.606783e-09	1.199842e+00	1.199842e+00	1.199842e+00	1.199842e+00	1.199842e+00	1.199842e+00	1.199842e+00	
188	1.616783e-09	1.199842e+00	1.199842e+00	1.199842e+00	1.199842e+00	1.199842e+00	1.199842e+00	1.199842e+00	
189	1.626783e-09	1.199842e+00	1.199842e+00	1.199842e+00	1.199842e+00	1.199842e+00	1.199842e+00	1.199842e+00	
190	1.636783e-09	1.199842e+00	1.199842e+00	1.199842e+00	1.199842e+00	1.199842e+00	1.199842e+00	1.199842e+00	
191	1.646783e-09	1.199842e+00	1.199842e+00	1.199842e+00	1.199842e+00	1.199842e+00	1.199842e+00	1.199842e+00	
192	1.656783e-09	1.199842e+00	1.199842e+00	1.199842e+00	1.199842e+00	1.199842e+00	1.199842e+00	1.199842e+00	
193	1.666783e-09	1.199842e+00	1.199842e+00	1.199842e+00	1.199842e+00	1.199842e+00	1.199842e+00	1.199842e+00	
194	1.676783e-09	1.199842e+00	1.199842e+00	1.199842e+00	1.199842e+00	1.199842e+00	1.199842e+00	1.199842e+00	
195	1.686783e-09	1.199842e+00	1.199842e+00	1.199842e+00	1.199842e+00	1.199842e+00	1.199842e+00	1.199842e+00	
196	1.696783e-09	1.199842e+00	1.199842e+00	1.199842e+00	1.199842e+00	1.199842e+00	1.199842e+00	1.199842e+00	
197	1.706783e-09	1.199842e+00	1.199842e+00	1.199842e+00	1.199842e+00	1.199842e+00	1.199842e+00	1.199842e+00	
198	1.716783e-09	1.199842e+00	1.199842e+00	1.199842e+00	1.199842e+00	1.199842e+00	1.199842e+00	1.199842e+00	
199	1.726783e-09	1.199842e+00	1.199842e+00	1.199842e+00	1.199842e+00	1.199842e+00	1.199842e+00	1.199842e+00	
200	1.736783e-09	1.199842e+00	1.199842e+00	1.199842e+00	1.199842e+00	1.199842e+00	1.199842e+00	1.199842e+00	
201	1.746783e-09	1.199842e+00	1.199842e+00	1.199842e+00	1.199842e+00	1.199842e+00	1.199842e+00	1.199842e+00	
202	1.756783e-09	1.199842e+00	1.199842e+00	1.199842e+00	1.199842e+00	1.199842e+00	1.199842e+00	1.199842e+00	
203	1.766783e-09	1.199842e+00	1.199842e+00	1.199842e+00	1.199842e+00	1.199842e+00	1.199842e+00	1.199842e+00	
204	1.776783e-09	1.199842e+00	1.199842e+00	1.199842e+00	1.199842e+00	1.199842e+00	1.199842e+00	1.199842e+00	
205	1.786783e-09	1.199842e+00	1.199842e+00	1.199842e+00	1.199842e+00	1.199842e+00	1.199842e+00	1.199842e+00	
206	1.796783e-09	1.199842e+00	1.199842e+00	1.199842e+00	1.199842e+00	1.199842e+00	1.199842e+00	1.199842e+00	
207	1.806783e-09	1.199842e+00	1.199842e+00	1.199842e+00	1.199842e+00	1.199842e+00	1.199842e+00	1.199842e+00	
208	1.816783e-09	1.199842e+00	1.199842e+00	1.199842e+00	1.199842e+00	1.199842e+00	1.199842e+00	1.199842e+00	
209	1.826783e-09	1.199842e+00	1.199842e+00	1.199842e+00	1.199842e+00	1.199842e+00	1.199842e+00	1.199842e+00	
210	1.836783e-09	1.199842e+00	1.199842e+00	1.199842e+00	1.199842e+00	1.199842e+00	1.199842e+00	1.199842e+00	
211	1.846783e-09	1.199842e+00	1.199842e+00	1.199842e+00	1.199842e+00	1.199842e+00	1.199842e+00	1.199842e+00	
212	1.856783e-09	1.199842e+00	1.199842e+00	1.199842e+00	1.199842e+00	1.199842e+00	1.199842e+00	1.199842e+00	
213	1.866783e-09	1.199842e+00	1.199842e+00	1.199842e+00	1.199842e+00	1.199842e+00	1.199842e+00	1.199842e+00	
214	1.876783e-09	1.199842e+00	1.199842e+00	1.199842e+00	1.199842e+00	1.199842e+00	1.199842e+00	1.199842e+00	
215	1.886783e-09	1.199842e+00	1.199842e+00	1.199842e+00	1.199842e+00	1.199842e+00	1.199842e+00	1.199842e+00	
216	1.896783e-09	1.199842e+00	1.199842e+00	1.199842e+00	1.199842e+00	1.199842e+00	1.199842e+00	1.199842e+00	
217	1.906783e-09	1.199842e+00	1.199842e+00	1.199842e+00	1.199842e+00	1.199842e+00	1.199842e+00	1.199842e+00	
218	1.916783e-09	1.199842e+00	1.199842e+00	1.199842e+00	1.199842e+00	1.199842e+00	1.199842e+00	1.199842e+00	
219	1.926783e-09	1.199842e+00	1.199842e+00	1.199842e+00	1.199842e+00	1.199842e+00	1.199842e+00	1.199842e+00	
220	1.936783e-09	1.199842e+00	1.199842e+00	1.199842e+00	1.199842e+00	1.199842e+00	1.199842e+00	1.199842e+00	
221	1.946783e-09	1.199842e+00	1.199842e+00	1.199842e+00	1.199842e+00	1.199842e+00	1.199842e+00	1.199842e+00	
222	1.956783e-09	1.199842e+00	1.199842e+00	1.199842e+00	1.199842e+00	1.199842e+00	1.199842e+00	1.199842e+00	
223	1.966783e-09	1.199842e+00	1.199842e+00	1.199842e+00	1.199842e+00	1.199842e+00	1.199842e+00	1.199842e+00	
224	1.976783e-09	1.199842e+00	1.199842e+00	1.199842e+00	1.199842e+00	1.199842e+00	1.199842e+00	1.199842e+00	
225	1.986783e-09	1.199842e+00	1.199842e+00	1.199842e+00	1.199842e+00	1.199842e+00	1.199842e+00	1.199842e+00	
226	1.996783e-09	1.199842e+00	1.199842e+00	1.199842e+00	1.199842e+00	1.199842e+00	1.199842e+00	1.199842e+00	
227	2.000000e-09	1.199842e+00	1.199842e+00	1.199842e+00	1.199842e+00	1.199842e+00	1.199842e+00	1.199842e+00	

CPU time since last call: 0.600 seconds.

Total CPU time: 0.600 seconds.

Total DRAM available = 3034.875000 MB.
DRAM currently available = 2326.718750 MB.
Total ngspice program size = 7.457031 MB.
Resident set size = 3.142578 MB.
Shared ngspice pages = 464.000 kB.
Text (code) pages = 1.378906 MB.
Stack = 0 bytes.
Library pages = 5.624023 MB.

