
Circuit: * spice from s2s

Doing analysis at TEMP = 75.000000 and TNOM = 27.000000


Initial Transient Solution
--------------------------

Node                                   Voltage
----                                   -------
n0                                           0
n16                                          0
n17                                        1.2
n18                                        1.2
n19                                          0
n20                                          0
n21                                        1.2
n22                                        1.2
n23                                          0
n24                                          0
n25                                        1.2
n26                                        1.2
n27                                          0
n28                                          0
n29                                        1.2
n1                                         1.2
n34                                        1.2
n35                                          0
n36                                          0
n37                                        1.2
n50                                        1.2
n51                                          0
n52                                          0
n53                                        1.2
n3                                         1.2
n32                                        1.2
n33                                          0
n38                                          0
n39                                        1.2
n48                                        1.2
n49                                          0
n54                                          0
n55                                        1.2
n30                                        1.2
n31                                          0
n4                                         1.2
n7                                           0
n40                                          0
n41                                        1.2
n46                                        1.2
n47                                          0
n42                                          0
n43                                        1.2
n44                                        1.2
n45                                          0
n8                                           0
n58                                          0
n59                                        1.2
n56                                          0
n57                                        1.2
n10                                        1.2
n13                                          0
n60                                          0
n61                                        1.2
n62                                          0
n63                                        1.2
n2                                         1.2
n5                                         1.2
n6                                         1.2
n9                                         1.2
n11                                        1.2
n12                                        1.2
n14                                        1.2
n15                                        1.2
nseg_node_64                                 0
nseg_node_65                                 0
nseg_node_66                                 0
nseg_node_67                                 0
nseg_node_68                                 0
nseg_node_69                                 0
nseg_node_70                                 0
nseg_node_71                                 0
nseg_node_72                                 0
nseg_node_73                                 0
nseg_node_74                                 0
nseg_node_75                                 0
nseg_node_76                                 0
nseg_node_77                                 0
nseg_node_78                                 0
nseg_node_79                                 0
nseg_node_80                                 0
nseg_node_81                                 0
nseg_node_82                                 0
nseg_node_83                                 0
nseg_node_84                                 0
nseg_node_85                                 0
nseg_node_86                                 0
nseg_node_87                                 0
nseg_node_88                                 0
nseg_node_89                                 0
nseg_node_90                                 0
gin                                        1.2
vdd                                        1.2
vdt#branch                         1.31316e-07
vdd#branch                        -0.000118039


No. of Data Rows : 225

                                                                                                                * spice from s2s
                                                                                                                Transient Analysis  Sat Feb  7 10:40:24  2009
------------------------------------------------------------------------------------------------------------------------------------------------------------------------------------------------------------------------------------------------
Index   time            v(gin)          v(n16)          v(n18)          v(n20)          v(n22)          v(n24)          v(n26)          v(n28)          v(n34)          v(n36)          v(n50)          v(n52)          v(n32)          
------------------------------------------------------------------------------------------------------------------------------------------------------------------------------------------------------------------------------------------------
0	0.000000e+00	1.200000e+00	0.000000e+00	1.200000e+00	0.000000e+00	1.200000e+00	0.000000e+00	1.200000e+00	0.000000e+00	1.200000e+00	0.000000e+00	1.200000e+00	0.000000e+00	1.200000e+00	
1	1.000000e-13	1.200000e+00	-1.196936e-03	1.128112e+00	-1.249988e-03	1.128112e+00	-1.249984e-03	1.128111e+00	-2.297429e-03	1.080856e+00	-1.283924e-03	1.126187e+00	-1.721265e-03	1.198668e+00	
2	1.262230e-13	1.200000e+00	-1.576615e-03	1.110393e+00	-1.647960e-03	1.110393e+00	-1.647954e-03	1.110391e+00	-3.015227e-03	1.052719e+00	-1.694015e-03	1.107773e+00	-2.264245e-03	1.198211e+00	
3	1.786689e-13	1.200000e+00	-2.442655e-03	1.077075e+00	-2.560464e-03	1.077075e+00	-2.560456e-03	1.077073e+00	-4.623153e-03	1.002062e+00	-2.638380e-03	1.072720e+00	-3.495794e-03	1.197055e+00	
4	2.835608e-13	1.200000e+00	-4.605965e-03	1.021653e+00	-4.883559e-03	1.021652e+00	-4.883545e-03	1.021648e+00	-8.435777e-03	9.285419e-01	-5.076770e-03	1.012090e+00	-6.539858e-03	1.193210e+00	
5	4.933445e-13	1.200000e+00	-9.387167e-03	9.437685e-01	-1.026047e-02	9.437674e-01	-1.026046e-02	9.437496e-01	-1.613981e-02	8.511944e-01	-1.087144e-02	9.194904e-01	-1.329430e-02	1.180127e+00	
6	9.129120e-13	1.200000e+00	-1.691479e-02	8.635796e-01	-1.969544e-02	8.635704e-01	-1.969560e-02	8.635082e-01	-2.651610e-02	8.151365e-01	-2.142790e-02	8.042280e-01	-2.462985e-02	1.144154e+00	
7	1.367143e-12	1.200000e+00	-2.048646e-02	8.333486e-01	-2.549767e-02	8.333192e-01	-2.549833e-02	8.332136e-01	-2.978027e-02	8.295970e-01	-2.823463e-02	7.378837e-01	-3.140302e-02	1.106202e+00	
8	2.094175e-12	1.200000e+00	-1.997283e-02	8.256903e-01	-2.671258e-02	8.256161e-01	-2.671436e-02	8.255113e-01	-2.655729e-02	8.587320e-01	-3.029722e-02	6.856986e-01	-3.321086e-02	1.063822e+00	
9	3.093462e-12	1.200000e+00	-1.544337e-02	8.436515e-01	-2.007406e-02	8.435488e-01	-2.007600e-02	8.435318e-01	-1.744485e-02	8.939032e-01	-2.491130e-02	6.638689e-01	-2.687568e-02	1.031734e+00	
10	4.768923e-12	1.200000e+00	-8.737277e-03	8.890965e-01	-4.079424e-03	8.891172e-01	-4.076057e-03	8.891788e-01	-2.588827e-03	9.395791e-01	-1.282780e-02	6.749351e-01	-9.976505e-03	1.009906e+00	
11	7.011601e-12	1.200000e+00	-3.377233e-03	9.492938e-01	1.307753e-02	9.496300e-01	1.308621e-02	9.496432e-01	1.139753e-02	9.835574e-01	-8.945180e-04	7.218528e-01	1.334612e-02	1.008864e+00	
12	9.997867e-12	1.200000e+00	5.504537e-04	1.014988e+00	2.323496e-02	1.015523e+00	2.322968e-02	1.015456e+00	1.949093e-02	1.024293e+00	7.463397e-03	7.938282e-01	3.857794e-02	1.025190e+00	
13	1.410969e-11	1.200000e+00	3.115458e-03	1.080296e+00	2.347755e-02	1.080551e+00	2.344367e-02	1.080469e+00	2.000848e-02	1.062782e+00	1.178294e-02	8.828977e-01	5.855447e-02	1.054826e+00	
14	1.955514e-11	1.200000e+00	3.880148e-03	1.133872e+00	1.746497e-02	1.133581e+00	1.742451e-02	1.133578e+00	1.580749e-02	1.098023e+00	1.252464e-02	9.751275e-01	6.317996e-02	1.090386e+00	
15	2.687633e-11	1.200000e+00	3.114838e-03	1.170805e+00	1.009266e-02	1.170282e+00	1.007239e-02	1.170331e+00	1.030881e-02	1.131002e+00	1.093932e-02	1.060960e+00	5.134235e-02	1.125803e+00	
16	3.570944e-11	1.200000e+00	1.825055e-03	1.189426e+00	4.709907e-03	1.189043e+00	4.709047e-03	1.189087e+00	5.855679e-03	1.157086e+00	8.175060e-03	1.123355e+00	3.371724e-02	1.153859e+00	
17	4.570944e-11	1.200000e+00	9.047314e-04	1.196609e+00	1.899617e-03	1.196412e+00	1.904769e-03	1.196427e+00	3.057131e-03	1.175011e+00	5.392506e-03	1.161209e+00	1.963694e-02	1.173120e+00	
18	5.570944e-11	1.200000e+00	4.841342e-04	1.198866e+00	8.199999e-04	1.198781e+00	8.240756e-04	1.198779e+00	1.667273e-03	1.185433e+00	3.399997e-03	1.180472e+00	1.120698e-02	1.184348e+00	
19	6.570944e-11	1.200000e+00	3.226434e-04	1.199508e+00	4.334184e-04	1.199472e+00	4.359362e-04	1.199465e+00	9.731989e-04	1.191488e+00	2.109817e-03	1.190057e+00	6.345788e-03	1.190848e+00	
20	7.570944e-11	1.200000e+00	2.618727e-04	1.199754e+00	2.999081e-04	1.199740e+00	3.011387e-04	1.199734e+00	6.314331e-04	1.194997e+00	1.321590e-03	1.194954e+00	3.615172e-03	1.194636e+00	
21	8.570944e-11	1.200000e+00	2.423152e-04	1.199791e+00	2.542613e-04	1.199786e+00	2.549437e-04	1.199780e+00	4.492796e-04	1.197031e+00	8.540136e-04	1.197346e+00	2.092267e-03	1.196813e+00	
22	9.570944e-11	1.200000e+00	2.344090e-04	1.199837e+00	2.398863e-04	1.199835e+00	2.401715e-04	1.199832e+00	3.589900e-04	1.198208e+00	5.847598e-04	1.198604e+00	1.255536e-03	1.198088e+00	
23	1.057094e-10	1.200000e+00	2.327570e-04	1.199822e+00	2.341254e-04	1.199821e+00	2.343065e-04	1.199819e+00	3.044101e-04	1.198889e+00	4.302826e-04	1.199191e+00	7.945084e-04	1.198811e+00	
24	1.157094e-10	1.200000e+00	2.314320e-04	1.199843e+00	2.333500e-04	1.199842e+00	2.334109e-04	1.199841e+00	2.796214e-04	1.199282e+00	3.441756e-04	1.199526e+00	5.447008e-04	1.199242e+00	
25	1.257094e-10	1.200000e+00	2.316155e-04	1.199828e+00	2.319448e-04	1.199827e+00	2.319996e-04	1.199826e+00	2.607286e-04	1.199510e+00	2.952047e-04	1.199663e+00	4.074367e-04	1.199480e+00	
26	1.357094e-10	1.200000e+00	2.311833e-04	1.199841e+00	2.326302e-04	1.199841e+00	2.326410e-04	1.199841e+00	2.546942e-04	1.199641e+00	2.686413e-04	1.199759e+00	3.341155e-04	1.199628e+00	
27	1.457094e-10	1.200000e+00	2.314369e-04	1.199830e+00	2.317489e-04	1.199830e+00	2.317687e-04	1.199829e+00	2.469349e-04	1.199718e+00	2.533002e-04	1.199785e+00	2.934539e-04	1.199704e+00	
28	1.557094e-10	1.200000e+00	2.312020e-04	1.199840e+00	2.325070e-04	1.199840e+00	2.325072e-04	1.199840e+00	2.464765e-04	1.199761e+00	2.453364e-04	1.199818e+00	2.723322e-04	1.199756e+00	
29	1.657094e-10	1.200000e+00	2.313827e-04	1.199831e+00	2.317809e-04	1.199831e+00	2.317891e-04	1.199831e+00	2.425466e-04	1.199787e+00	2.404611e-04	1.199817e+00	2.601684e-04	1.199778e+00	
30	1.757094e-10	1.200000e+00	2.312320e-04	1.199839e+00	2.324383e-04	1.199839e+00	2.324368e-04	1.199839e+00	2.436482e-04	1.199801e+00	2.381848e-04	1.199832e+00	2.543195e-04	1.199798e+00	
31	1.857094e-10	1.200000e+00	2.313548e-04	1.199832e+00	2.318405e-04	1.199832e+00	2.318442e-04	1.199832e+00	2.412044e-04	1.199810e+00	2.365464e-04	1.199827e+00	2.505113e-04	1.199804e+00	
32	1.957094e-10	1.200000e+00	2.312528e-04	1.199838e+00	2.323757e-04	1.199838e+00	2.323745e-04	1.199838e+00	2.426073e-04	1.199814e+00	2.359826e-04	1.199835e+00	2.490858e-04	1.199812e+00	
33	2.000000e-10	1.200000e+00	2.313300e-04	1.199833e+00	2.319357e-04	1.199833e+00	2.319371e-04	1.199833e+00	2.410357e-04	1.199816e+00	2.355848e-04	1.199830e+00	2.482359e-04	1.199811e+00	
34	2.010000e-10	1.190400e+00	1.232150e-04	1.199834e+00	2.320555e-04	1.199835e+00	2.320691e-04	1.199835e+00	2.415463e-04	1.199816e+00	2.356139e-04	1.199832e+00	2.482958e-04	1.199812e+00	
35	2.030000e-10	1.171200e+00	-2.381740e-04	1.199829e+00	2.320638e-04	1.199835e+00	2.321553e-04	1.199835e+00	2.417255e-04	1.199817e+00	2.355570e-04	1.199833e+00	2.481576e-04	1.199813e+00	
36	2.070000e-10	1.132800e+00	-1.052888e-03	1.199807e+00	2.315877e-04	1.199835e+00	2.320957e-04	1.199835e+00	2.415180e-04	1.199818e+00	2.354105e-04	1.199832e+00	2.478323e-04	1.199814e+00	
37	2.150000e-10	1.056000e+00	-9.508209e-04	1.199808e+00	2.317245e-04	1.199835e+00	2.321410e-04	1.199835e+00	2.415570e-04	1.199819e+00	2.352320e-04	1.199833e+00	2.474457e-04	1.199815e+00	
38	2.250000e-10	9.600000e-01	4.995521e-03	1.199954e+00	2.345885e-04	1.199835e+00	2.321015e-04	1.199835e+00	2.413795e-04	1.199820e+00	2.350783e-04	1.199833e+00	2.471158e-04	1.199816e+00	
39	2.350000e-10	8.640000e-01	2.353435e-02	1.200302e+00	2.390167e-04	1.199835e+00	2.321378e-04	1.199835e+00	2.414432e-04	1.199820e+00	2.350084e-04	1.199833e+00	2.469786e-04	1.199817e+00	
40	2.450000e-10	7.680000e-01	5.990831e-02	1.200805e+00	2.425048e-04	1.199835e+00	2.321048e-04	1.199835e+00	2.413291e-04	1.199821e+00	2.349550e-04	1.199833e+00	2.468680e-04	1.199817e+00	
41	2.550000e-10	6.720000e-01	1.177672e-01	1.201126e+00	2.393936e-04	1.199835e+00	2.321289e-04	1.199835e+00	2.414004e-04	1.199821e+00	2.349382e-04	1.199833e+00	2.468433e-04	1.199818e+00	
42	2.650000e-10	5.760000e-01	2.167390e-01	1.199379e+00	2.026282e-04	1.199834e+00	2.320937e-04	1.199835e+00	2.413171e-04	1.199821e+00	2.349169e-04	1.199833e+00	2.467979e-04	1.199818e+00	
43	2.750000e-10	4.800000e-01	3.844509e-01	1.179280e+00	-1.053164e-04	1.199829e+00	2.320294e-04	1.199835e+00	2.413819e-04	1.199821e+00	2.349157e-04	1.199833e+00	2.468034e-04	1.199818e+00	
44	2.850000e-10	3.840000e-01	6.168666e-01	1.089434e+00	-1.017686e-03	1.199812e+00	2.318025e-04	1.199835e+00	2.413169e-04	1.199821e+00	2.349053e-04	1.199833e+00	2.467788e-04	1.199818e+00	
45	2.950000e-10	2.880000e-01	8.545792e-01	8.390256e-01	1.249606e-02	1.200086e+00	2.363487e-04	1.199835e+00	2.413735e-04	1.199821e+00	2.349082e-04	1.199833e+00	2.467910e-04	1.199818e+00	
46	3.050000e-10	1.920000e-01	1.031437e+00	4.616313e-01	1.417631e-01	1.202129e+00	2.671646e-04	1.199836e+00	2.413293e-04	1.199821e+00	2.349019e-04	1.199833e+00	2.467742e-04	1.199818e+00	
47	3.129048e-10	1.161135e-01	1.113810e+00	2.203532e-01	4.081571e-01	1.188461e+00	2.950042e-05	1.199831e+00	2.413051e-04	1.199821e+00	2.349056e-04	1.199833e+00	2.467867e-04	1.199818e+00	
48	3.208192e-10	4.013560e-02	1.157278e+00	1.012236e-01	7.346222e-01	1.082753e+00	-1.419070e-03	1.199802e+00	2.408444e-04	1.199821e+00	2.349013e-04	1.199833e+00	2.467741e-04	1.199818e+00	
49	3.250000e-10	0.000000e+00	1.170120e+00	6.860110e-02	8.712666e-01	9.541836e-01	-1.402761e-03	1.199796e+00	2.407869e-04	1.199821e+00	2.349043e-04	1.199833e+00	2.467843e-04	1.199818e+00	
50	3.260000e-10	0.000000e+00	1.172499e+00	6.262085e-02	8.964970e-01	9.128023e-01	-5.000031e-04	1.199810e+00	2.409639e-04	1.199821e+00	2.349032e-04	1.199833e+00	2.467804e-04	1.199818e+00	
51	3.280000e-10	0.000000e+00	1.177032e+00	5.185125e-02	9.435794e-01	8.258322e-01	3.312282e-03	1.199874e+00	2.418556e-04	1.199821e+00	2.349027e-04	1.199833e+00	2.467790e-04	1.199818e+00	
52	3.320000e-10	0.000000e+00	1.184422e+00	3.570273e-02	1.018654e+00	6.369731e-01	2.976744e-02	1.200420e+00	2.501155e-04	1.199821e+00	2.349035e-04	1.199833e+00	2.467798e-04	1.199818e+00	
53	3.384598e-10	0.000000e+00	1.191965e+00	1.957002e-02	1.099196e+00	3.662426e-01	1.728649e-01	1.202829e+00	2.868385e-04	1.199822e+00	2.349079e-04	1.199833e+00	2.467789e-04	1.199818e+00	
54	3.457186e-10	0.000000e+00	1.196157e+00	1.009055e-02	1.149746e+00	1.788732e-01	4.681833e-01	1.183145e+00	-7.024231e-06	1.199819e+00	2.348831e-04	1.199833e+00	2.467794e-04	1.199816e+00	
55	3.537099e-10	0.000000e+00	1.198246e+00	4.879640e-03	1.176863e+00	8.238338e-02	7.934070e-01	1.040019e+00	-1.411532e-03	1.199803e+00	2.347068e-04	1.199833e+00	2.467787e-04	1.199802e+00	
56	3.614868e-10	0.000000e+00	1.199128e+00	2.465828e-03	1.189254e+00	3.821370e-02	9.932707e-01	7.341175e-01	1.688636e-02	1.199973e+00	2.364807e-04	1.199833e+00	2.467794e-04	1.199939e+00	
57	3.696657e-10	0.000000e+00	1.199530e+00	1.245837e-03	1.195110e+00	1.779241e-02	1.102189e+00	3.836835e-01	1.494623e-01	1.201185e+00	2.495286e-04	1.199833e+00	2.467805e-04	1.200979e+00	
58	3.778128e-10	0.000000e+00	1.199705e+00	6.975541e-04	1.197757e+00	8.419778e-03	1.155297e+00	1.685257e-01	4.280668e-01	1.193265e+00	1.663426e-04	1.199832e+00	2.467721e-04	1.194693e+00	
59	3.861967e-10	0.000000e+00	1.199779e+00	4.330281e-04	1.198932e+00	3.948476e-03	1.180017e+00	7.380783e-02	7.269594e-01	1.123980e+00	-5.246876e-04	1.199823e+00	2.466854e-04	1.135494e+00	
60	3.937930e-10	0.000000e+00	1.199811e+00	3.316435e-04	1.199391e+00	2.128097e-03	1.190627e+00	3.474746e-02	9.094477e-01	9.540573e-01	9.151341e-05	1.199828e+00	2.467234e-04	9.833340e-01	
61	4.020538e-10	0.000000e+00	1.199824e+00	2.730044e-04	1.199657e+00	1.008729e-03	1.195639e+00	1.656268e-02	1.037827e+00	6.952864e-01	2.256503e-02	1.200123e+00	2.494893e-04	7.391077e-01	
62	4.098782e-10	0.000000e+00	1.199831e+00	2.540894e-04	1.199728e+00	6.997360e-04	1.198030e+00	8.864470e-03	1.114420e+00	4.815939e-01	1.066798e-01	1.201174e+00	2.594392e-04	5.235345e-01	
63	4.182670e-10	0.000000e+00	1.199833e+00	2.391344e-04	1.199812e+00	3.397840e-04	1.198969e+00	4.681042e-03	1.156283e+00	3.323803e-01	2.901615e-01	1.199446e+00	2.428454e-04	3.658418e-01	
64	4.271556e-10	0.000000e+00	1.199835e+00	2.373125e-04	1.199802e+00	3.723136e-04	1.199525e+00	2.460342e-03	1.178681e+00	2.296682e-01	5.403574e-01	1.167175e+00	-5.991507e-05	2.551263e-01	
65	4.371556e-10	0.000000e+00	1.199835e+00	2.320386e-04	1.199845e+00	1.951339e-04	1.199674e+00	1.102701e-03	1.189458e+00	1.479800e-01	7.927109e-01	1.024267e+00	-4.915960e-04	1.634977e-01	
66	4.467165e-10	0.000000e+00	1.199836e+00	2.338869e-04	1.199818e+00	3.021819e-04	1.199798e+00	7.360673e-04	1.194499e+00	9.446343e-02	9.573668e-01	7.652112e-01	1.368996e-02	1.038290e-01	
67	4.559830e-10	0.000000e+00	1.199836e+00	2.312054e-04	1.199848e+00	1.811225e-04	1.199798e+00	3.500074e-04	1.196599e+00	6.083921e-02	1.058326e+00	4.845997e-01	8.979632e-02	6.672664e-02	
68	4.643946e-10	0.000000e+00	1.199836e+00	2.331797e-04	1.199823e+00	2.841133e-04	1.199832e+00	4.235532e-04	1.197948e+00	4.056736e-02	1.115260e+00	2.921340e-01	2.537181e-01	4.430849e-02	
69	4.731366e-10	0.000000e+00	1.199836e+00	2.313007e-04	1.199846e+00	1.876866e-04	1.199824e+00	2.104406e-04	1.198543e+00	2.633396e-02	1.150202e+00	1.691648e-01	4.849318e-01	2.865594e-02	
70	4.825668e-10	0.000000e+00	1.199836e+00	2.328824e-04	1.199825e+00	2.734487e-04	1.199836e+00	3.395274e-04	1.199120e+00	1.648326e-02	1.172479e+00	9.212944e-02	7.125979e-01	1.788465e-02	
71	4.899803e-10	0.000000e+00	1.199836e+00	2.314824e-04	1.199843e+00	1.963928e-04	1.199832e+00	1.835293e-04	1.199279e+00	1.130159e-02	1.182372e+00	5.696217e-02	8.412349e-01	1.224342e-02	
72	4.975465e-10	0.000000e+00	1.199836e+00	2.326640e-04	1.199828e+00	2.635865e-04	1.199835e+00	3.075438e-04	1.199497e+00	7.809362e-03	1.189064e+00	3.533086e-02	9.441584e-01	8.442611e-03	
73	5.050409e-10	0.000000e+00	1.199836e+00	2.316533e-04	1.199841e+00	2.048874e-04	1.199835e+00	1.858191e-04	1.199571e+00	5.300495e-03	1.192981e+00	2.242960e-02	1.027142e+00	5.724582e-03	
74	5.121763e-10	0.000000e+00	1.199836e+00	2.325063e-04	1.199830e+00	2.556151e-04	1.199834e+00	2.865972e-04	1.199669e+00	3.802273e-03	1.195527e+00	1.476786e-02	1.082376e+00	4.093757e-03	
75	5.197753e-10	0.000000e+00	1.199836e+00	2.317833e-04	1.199839e+00	2.118007e-04	1.199836e+00	1.938107e-04	1.199708e+00	2.566222e-03	1.197089e+00	9.631432e-03	1.123041e+00	2.763998e-03	
76	5.283340e-10	0.000000e+00	1.199836e+00	2.324031e-04	1.199832e+00	2.499971e-04	1.199834e+00	2.724499e-04	1.199758e+00	1.783306e-03	1.198278e+00	5.890090e-03	1.152790e+00	1.906523e-03	
77	5.383340e-10	0.000000e+00	1.199836e+00	2.318604e-04	1.199838e+00	2.161331e-04	1.199836e+00	1.997971e-04	1.199782e+00	1.091217e-03	1.198961e+00	3.465812e-03	1.173764e+00	1.170153e-03	
78	5.483340e-10	0.000000e+00	1.199836e+00	2.323406e-04	1.199832e+00	2.464151e-04	1.199835e+00	2.635757e-04	1.199803e+00	7.943451e-04	1.199401e+00	1.979506e-03	1.185385e+00	8.364110e-04	
79	5.583340e-10	0.000000e+00	1.199836e+00	2.319153e-04	1.199838e+00	2.193479e-04	1.199836e+00	2.053048e-04	1.199813e+00	5.180367e-04	1.199570e+00	1.269960e-03	1.191975e+00	5.515213e-04	
80	5.683340e-10	0.000000e+00	1.199836e+00	2.322921e-04	1.199833e+00	2.435249e-04	1.199835e+00	2.570179e-04	1.199819e+00	4.528565e-04	1.199717e+00	7.564450e-04	1.195452e+00	4.667567e-04	
81	5.783340e-10	0.000000e+00	1.199836e+00	2.319581e-04	1.199837e+00	2.219387e-04	1.199836e+00	2.103167e-04	1.199824e+00	3.251465e-04	1.199748e+00	5.760407e-04	1.197510e+00	3.434174e-04	
82	5.883340e-10	0.000000e+00	1.199836e+00	2.322544e-04	1.199834e+00	2.412023e-04	1.199835e+00	2.519330e-04	1.199824e+00	3.344488e-04	1.199806e+00	3.775541e-04	1.198490e+00	3.385361e-04	
83	5.983340e-10	0.000000e+00	1.199836e+00	2.319913e-04	1.199837e+00	2.240157e-04	1.199835e+00	2.145657e-04	1.199828e+00	2.620973e-04	1.199802e+00	3.561034e-04	1.199164e+00	2.752794e-04	
84	6.083340e-10	0.000000e+00	1.199836e+00	2.322252e-04	1.199834e+00	2.393424e-04	1.199835e+00	2.479079e-04	1.199825e+00	2.922727e-04	1.199830e+00	2.636077e-04	1.199401e+00	2.930049e-04	
85	6.183340e-10	0.000000e+00	1.199836e+00	2.320170e-04	1.199836e+00	2.256774e-04	1.199835e+00	2.180637e-04	1.199829e+00	2.428523e-04	1.199819e+00	2.851163e-04	1.199652e+00	2.542479e-04	
86	6.283340e-10	0.000000e+00	1.199836e+00	2.322024e-04	1.199834e+00	2.378574e-04	1.199835e+00	2.447000e-04	1.199826e+00	2.761684e-04	1.199836e+00	2.315825e-04	1.199677e+00	2.758750e-04	
87	6.383340e-10	0.000000e+00	1.199836e+00	2.320370e-04	1.199836e+00	2.270037e-04	1.199835e+00	2.208992e-04	1.199830e+00	2.381479e-04	1.199826e+00	2.607832e-04	1.199793e+00	2.487789e-04	
88	6.483340e-10	0.000000e+00	1.199836e+00	2.321848e-04	1.199834e+00	2.366735e-04	1.199835e+00	2.421371e-04	1.199826e+00	2.691059e-04	1.199837e+00	2.242431e-04	1.199762e+00	2.686613e-04	
89	6.583340e-10	0.000000e+00	1.199836e+00	2.320526e-04	1.199836e+00	2.280605e-04	1.199835e+00	2.231795e-04	1.199830e+00	2.381012e-04	1.199828e+00	2.512366e-04	1.199832e+00	2.482495e-04	
90	6.683340e-10	0.000000e+00	1.199836e+00	2.321711e-04	1.199835e+00	2.357307e-04	1.199835e+00	2.400899e-04	1.199826e+00	2.653129e-04	1.199837e+00	2.239748e-04	1.199791e+00	2.650625e-04	
91	6.783340e-10	0.000000e+00	1.199836e+00	2.320647e-04	1.199836e+00	2.289016e-04	1.199835e+00	2.250052e-04	1.199830e+00	2.394039e-04	1.199830e+00	2.466057e-04	1.199840e+00	2.491291e-04	
92	6.883340e-10	0.000000e+00	1.199836e+00	2.321604e-04	1.199835e+00	2.349807e-04	1.199835e+00	2.384561e-04	1.199827e+00	2.628212e-04	1.199836e+00	2.254637e-04	1.199802e+00	2.629066e-04	
93	6.983340e-10	0.000000e+00	1.199836e+00	2.320742e-04	1.199835e+00	2.295706e-04	1.199835e+00	2.264632e-04	1.199830e+00	2.409685e-04	1.199831e+00	2.438092e-04	1.199840e+00	2.502750e-04	
94	7.083340e-10	0.000000e+00	1.199836e+00	2.321520e-04	1.199835e+00	2.343843e-04	1.199835e+00	2.371535e-04	1.199827e+00	2.609447e-04	1.199835e+00	2.271664e-04	1.199808e+00	2.614213e-04	
95	7.183340e-10	0.000000e+00	1.199836e+00	2.320816e-04	1.199835e+00	2.301024e-04	1.199835e+00	2.276256e-04	1.199830e+00	2.424540e-04	1.199831e+00	2.418494e-04	1.199838e+00	2.513424e-04	
96	7.283340e-10	0.000000e+00	1.199836e+00	2.321455e-04	1.199835e+00	2.339103e-04	1.199835e+00	2.361160e-04	1.199827e+00	2.594298e-04	1.199835e+00	2.286775e-04	1.199811e+00	2.603120e-04	
97	7.383340e-10	0.000000e+00	1.199836e+00	2.320874e-04	1.199835e+00	2.305250e-04	1.199835e+00	2.285515e-04	1.199829e+00	2.437685e-04	1.199832e+00	2.403700e-04	1.199836e+00	2.522473e-04	
98	7.483340e-10	0.000000e+00	1.199836e+00	2.321403e-04	1.199835e+00	2.335338e-04	1.199835e+00	2.352901e-04	1.199827e+00	2.581700e-04	1.199834e+00	2.299256e-04	1.199814e+00	2.594509e-04	
99	7.583340e-10	0.000000e+00	1.199836e+00	2.320920e-04	1.199835e+00	2.308606e-04	1.199835e+00	2.292883e-04	1.199829e+00	2.449015e-04	1.199832e+00	2.392182e-04	1.199834e+00	2.529883e-04	
100	7.683340e-10	0.000000e+00	1.199836e+00	2.321362e-04	1.199835e+00	2.332348e-04	1.199835e+00	2.346330e-04	1.199827e+00	2.571106e-04	1.199834e+00	2.309309e-04	1.199816e+00	2.587711e-04	
101	7.783340e-10	0.000000e+00	1.199836e+00	2.320956e-04	1.199835e+00	2.311271e-04	1.199835e+00	2.298744e-04	1.199829e+00	2.458676e-04	1.199832e+00	2.383109e-04	1.199832e+00	2.535863e-04	
102	7.883340e-10	0.000000e+00	1.199836e+00	2.321330e-04	1.199835e+00	2.329974e-04	1.199835e+00	2.341105e-04	1.199827e+00	2.562163e-04	1.199834e+00	2.317328e-04	1.199817e+00	2.582310e-04	
103	7.983340e-10	0.000000e+00	1.199836e+00	2.320985e-04	1.199835e+00	2.313387e-04	1.199835e+00	2.303404e-04	1.199829e+00	2.466874e-04	1.199832e+00	2.375932e-04	1.199831e+00	2.540657e-04	
104	8.083340e-10	0.000000e+00	1.199836e+00	2.321304e-04	1.199835e+00	2.328090e-04	1.199835e+00	2.336951e-04	1.199827e+00	2.554607e-04	1.199834e+00	2.323702e-04	1.199819e+00	2.578009e-04	
105	8.183340e-10	0.000000e+00	1.199836e+00	2.321008e-04	1.199835e+00	2.315066e-04	1.199835e+00	2.307109e-04	1.199829e+00	2.473812e-04	1.199833e+00	2.370249e-04	1.199830e+00	2.544489e-04	
106	8.283340e-10	0.000000e+00	1.199836e+00	2.321283e-04	1.199835e+00	2.326594e-04	1.199835e+00	2.333650e-04	1.199827e+00	2.548223e-04	1.199834e+00	2.328758e-04	1.199820e+00	2.574582e-04	
107	8.383340e-10	0.000000e+00	1.199836e+00	2.321027e-04	1.199835e+00	2.316399e-04	1.199835e+00	2.310053e-04	1.199829e+00	2.479678e-04	1.199833e+00	2.365745e-04	1.199829e+00	2.547546e-04	
108	8.483340e-10	0.000000e+00	1.199836e+00	2.321267e-04	1.199835e+00	2.325408e-04	1.199835e+00	2.331026e-04	1.199828e+00	2.542832e-04	1.199834e+00	2.332768e-04	1.199820e+00	2.571853e-04	
109	8.583340e-10	0.000000e+00	1.199836e+00	2.321042e-04	1.199835e+00	2.317456e-04	1.199835e+00	2.312393e-04	1.199829e+00	2.484632e-04	1.199833e+00	2.362177e-04	1.199828e+00	2.549982e-04	
110	8.683340e-10	0.000000e+00	1.199836e+00	2.321253e-04	1.199835e+00	2.324466e-04	1.199835e+00	2.328942e-04	1.199828e+00	2.538281e-04	1.199834e+00	2.335946e-04	1.199821e+00	2.569680e-04	
111	8.783340e-10	0.000000e+00	1.199836e+00	2.321054e-04	1.199835e+00	2.318294e-04	1.199835e+00	2.314252e-04	1.199829e+00	2.488815e-04	1.199833e+00	2.359349e-04	1.199827e+00	2.551923e-04	
112	8.883340e-10	0.000000e+00	1.199836e+00	2.321242e-04	1.199835e+00	2.323720e-04	1.199835e+00	2.327286e-04	1.199828e+00	2.534439e-04	1.199833e+00	2.338465e-04	1.199822e+00	2.567950e-04	
113	8.983340e-10	0.000000e+00	1.199836e+00	2.321064e-04	1.199835e+00	2.318959e-04	1.199835e+00	2.315729e-04	1.199829e+00	2.492346e-04	1.199833e+00	2.357109e-04	1.199827e+00	2.553467e-04	
114	9.083340e-10	0.000000e+00	1.199836e+00	2.321232e-04	1.199835e+00	2.323128e-04	1.199835e+00	2.325970e-04	1.199828e+00	2.531197e-04	1.199833e+00	2.340461e-04	1.199822e+00	2.566575e-04	
115	9.183340e-10	0.000000e+00	1.199836e+00	2.321073e-04	1.199835e+00	2.319486e-04	1.199835e+00	2.316902e-04	1.199829e+00	2.495326e-04	1.199833e+00	2.355334e-04	1.199826e+00	2.554696e-04	
116	9.283340e-10	0.000000e+00	1.199836e+00	2.321225e-04	1.199835e+00	2.322659e-04	1.199835e+00	2.324925e-04	1.199828e+00	2.528462e-04	1.199833e+00	2.342044e-04	1.199823e+00	2.565481e-04	
117	9.383340e-10	0.000000e+00	1.199836e+00	2.321080e-04	1.199835e+00	2.319904e-04	1.199835e+00	2.317834e-04	1.199829e+00	2.497841e-04	1.199833e+00	2.353928e-04	1.199826e+00	2.555673e-04	
118	9.483340e-10	0.000000e+00	1.199836e+00	2.321218e-04	1.199835e+00	2.322288e-04	1.199835e+00	2.324096e-04	1.199828e+00	2.526153e-04	1.199833e+00	2.343297e-04	1.199823e+00	2.564612e-04	
119	9.583340e-10	0.000000e+00	1.199836e+00	2.321086e-04	1.199835e+00	2.320235e-04	1.199835e+00	2.318574e-04	1.199828e+00	2.499963e-04	1.199833e+00	2.352814e-04	1.199826e+00	2.556450e-04	
120	9.683340e-10	0.000000e+00	1.199836e+00	2.321212e-04	1.199835e+00	2.321994e-04	1.199835e+00	2.323437e-04	1.199828e+00	2.524205e-04	1.199833e+00	2.344291e-04	1.199823e+00	2.563921e-04	
121	9.783340e-10	0.000000e+00	1.199836e+00	2.321091e-04	1.199835e+00	2.320496e-04	1.199835e+00	2.319162e-04	1.199828e+00	2.501755e-04	1.199833e+00	2.351931e-04	1.199825e+00	2.557068e-04	
122	9.883340e-10	0.000000e+00	1.199836e+00	2.321207e-04	1.199835e+00	2.321761e-04	1.199835e+00	2.322914e-04	1.199828e+00	2.522560e-04	1.199833e+00	2.345079e-04	1.199823e+00	2.563372e-04	
123	9.983340e-10	0.000000e+00	1.199836e+00	2.321096e-04	1.199835e+00	2.320703e-04	1.199835e+00	2.319628e-04	1.199828e+00	2.503268e-04	1.199833e+00	2.351232e-04	1.199825e+00	2.557559e-04	
124	1.008334e-09	0.000000e+00	1.199836e+00	2.321203e-04	1.199835e+00	2.321577e-04	1.199835e+00	2.322499e-04	1.199828e+00	2.521171e-04	1.199833e+00	2.345703e-04	1.199824e+00	2.562936e-04	
125	1.018334e-09	0.000000e+00	1.199836e+00	2.321100e-04	1.199835e+00	2.320867e-04	1.199835e+00	2.319999e-04	1.199828e+00	2.504546e-04	1.199833e+00	2.350679e-04	1.199825e+00	2.557950e-04	
126	1.028334e-09	0.000000e+00	1.199836e+00	2.321199e-04	1.199835e+00	2.321432e-04	1.199835e+00	2.322169e-04	1.199828e+00	2.519998e-04	1.199833e+00	2.346198e-04	1.199824e+00	2.562589e-04	
127	1.038334e-09	0.000000e+00	1.199836e+00	2.321104e-04	1.199835e+00	2.320996e-04	1.199835e+00	2.320293e-04	1.199828e+00	2.505626e-04	1.199833e+00	2.350240e-04	1.199825e+00	2.558261e-04	
128	1.048334e-09	0.000000e+00	1.199836e+00	2.321196e-04	1.199835e+00	2.321318e-04	1.199835e+00	2.321907e-04	1.199828e+00	2.519007e-04	1.199833e+00	2.346590e-04	1.199824e+00	2.562313e-04	
129	1.058334e-09	0.000000e+00	1.199836e+00	2.321107e-04	1.199835e+00	2.321098e-04	1.199835e+00	2.320527e-04	1.199828e+00	2.506539e-04	1.199833e+00	2.349893e-04	1.199825e+00	2.558509e-04	
130	1.068334e-09	0.000000e+00	1.199836e+00	2.321193e-04	1.199835e+00	2.321227e-04	1.199835e+00	2.321700e-04	1.199828e+00	2.518169e-04	1.199833e+00	2.346900e-04	1.199824e+00	2.562093e-04	
131	1.078334e-09	0.000000e+00	1.199836e+00	2.321109e-04	1.199835e+00	2.321178e-04	1.199835e+00	2.320712e-04	1.199828e+00	2.507311e-04	1.199833e+00	2.349618e-04	1.199825e+00	2.558707e-04	
132	1.088334e-09	0.000000e+00	1.199836e+00	2.321190e-04	1.199835e+00	2.321156e-04	1.199835e+00	2.321536e-04	1.199828e+00	2.517460e-04	1.199833e+00	2.347147e-04	1.199824e+00	2.561918e-04	
133	1.098334e-09	0.000000e+00	1.199836e+00	2.321112e-04	1.199835e+00	2.321241e-04	1.199835e+00	2.320859e-04	1.199828e+00	2.507965e-04	1.199833e+00	2.349401e-04	1.199825e+00	2.558865e-04	
134	1.108334e-09	0.000000e+00	1.199836e+00	2.321188e-04	1.199835e+00	2.321101e-04	1.199835e+00	2.321405e-04	1.199828e+00	2.516860e-04	1.199833e+00	2.347342e-04	1.199824e+00	2.561778e-04	
135	1.118334e-09	0.000000e+00	1.199836e+00	2.321114e-04	1.199835e+00	2.321290e-04	1.199835e+00	2.320975e-04	1.199828e+00	2.508519e-04	1.199833e+00	2.349229e-04	1.199825e+00	2.558992e-04	
136	1.128334e-09	0.000000e+00	1.199836e+00	2.321186e-04	1.199835e+00	2.321057e-04	1.199835e+00	2.321302e-04	1.199828e+00	2.516352e-04	1.199833e+00	2.347497e-04	1.199824e+00	2.561666e-04	
137	1.138334e-09	0.000000e+00	1.199836e+00	2.321116e-04	1.199835e+00	2.321329e-04	1.199835e+00	2.321068e-04	1.199828e+00	2.508988e-04	1.199833e+00	2.349093e-04	1.199825e+00	2.559095e-04	
138	1.148334e-09	0.000000e+00	1.199836e+00	2.321184e-04	1.199835e+00	2.321023e-04	1.199835e+00	2.321220e-04	1.199828e+00	2.515921e-04	1.199833e+00	2.347619e-04	1.199824e+00	2.561575e-04	
139	1.158334e-09	0.000000e+00	1.199836e+00	2.321118e-04	1.199835e+00	2.321359e-04	1.199835e+00	2.321141e-04	1.199828e+00	2.509386e-04	1.199833e+00	2.348985e-04	1.199825e+00	2.559178e-04	
140	1.168334e-09	0.000000e+00	1.199836e+00	2.321182e-04	1.199835e+00	2.320997e-04	1.199835e+00	2.321156e-04	1.199828e+00	2.515556e-04	1.199833e+00	2.347717e-04	1.199824e+00	2.561502e-04	
141	1.178334e-09	0.000000e+00	1.199836e+00	2.321120e-04	1.199835e+00	2.321382e-04	1.199835e+00	2.321199e-04	1.199828e+00	2.509725e-04	1.199833e+00	2.348900e-04	1.199824e+00	2.559245e-04	
142	1.188334e-09	0.000000e+00	1.199836e+00	2.321180e-04	1.199835e+00	2.320977e-04	1.199835e+00	2.321105e-04	1.199828e+00	2.515245e-04	1.199833e+00	2.347794e-04	1.199824e+00	2.561443e-04	
143	1.198334e-09	0.000000e+00	1.199836e+00	2.321122e-04	1.199835e+00	2.321400e-04	1.199835e+00	2.321245e-04	1.199828e+00	2.510012e-04	1.199833e+00	2.348833e-04	1.199824e+00	2.559300e-04	
144	1.208334e-09	0.000000e+00	1.199836e+00	2.321178e-04	1.199835e+00	2.320961e-04	1.199835e+00	2.321064e-04	1.199828e+00	2.514981e-04	1.199833e+00	2.347855e-04	1.199824e+00	2.561394e-04	
145	1.218334e-09	0.000000e+00	1.199836e+00	2.321124e-04	1.199835e+00	2.321414e-04	1.199835e+00	2.321281e-04	1.199828e+00	2.510258e-04	1.199833e+00	2.348780e-04	1.199824e+00	2.559346e-04	
146	1.228334e-09	0.000000e+00	1.199836e+00	2.321177e-04	1.199835e+00	2.320949e-04	1.199835e+00	2.321033e-04	1.199828e+00	2.514756e-04	1.199833e+00	2.347904e-04	1.199824e+00	2.561354e-04	
147	1.238334e-09	0.000000e+00	1.199836e+00	2.321125e-04	1.199835e+00	2.321424e-04	1.199835e+00	2.321309e-04	1.199828e+00	2.510467e-04	1.199833e+00	2.348739e-04	1.199824e+00	2.559384e-04	
148	1.248334e-09	0.000000e+00	1.199836e+00	2.321176e-04	1.199835e+00	2.320940e-04	1.199835e+00	2.321008e-04	1.199828e+00	2.514564e-04	1.199833e+00	2.347942e-04	1.199824e+00	2.561320e-04	
149	1.258334e-09	0.000000e+00	1.199836e+00	2.321126e-04	1.199835e+00	2.321432e-04	1.199835e+00	2.321332e-04	1.199828e+00	2.510645e-04	1.199833e+00	2.348706e-04	1.199824e+00	2.559417e-04	
150	1.268334e-09	0.000000e+00	1.199836e+00	2.321174e-04	1.199835e+00	2.320933e-04	1.199835e+00	2.320988e-04	1.199828e+00	2.514400e-04	1.199833e+00	2.347973e-04	1.199824e+00	2.561291e-04	
151	1.278334e-09	0.000000e+00	1.199836e+00	2.321128e-04	1.199835e+00	2.321438e-04	1.199835e+00	2.321349e-04	1.199828e+00	2.510798e-04	1.199833e+00	2.348680e-04	1.199824e+00	2.559445e-04	
152	1.288334e-09	0.000000e+00	1.199836e+00	2.321173e-04	1.199835e+00	2.320929e-04	1.199835e+00	2.320973e-04	1.199828e+00	2.514259e-04	1.199833e+00	2.347997e-04	1.199824e+00	2.561267e-04	
153	1.298334e-09	0.000000e+00	1.199836e+00	2.321129e-04	1.199835e+00	2.321442e-04	1.199835e+00	2.321363e-04	1.199828e+00	2.510929e-04	1.199833e+00	2.348660e-04	1.199824e+00	2.559469e-04	
154	1.308334e-09	0.000000e+00	1.199836e+00	2.321172e-04	1.199835e+00	2.320925e-04	1.199835e+00	2.320961e-04	1.199828e+00	2.514139e-04	1.199833e+00	2.348017e-04	1.199824e+00	2.561245e-04	
155	1.318334e-09	0.000000e+00	1.199836e+00	2.321130e-04	1.199835e+00	2.321445e-04	1.199835e+00	2.321374e-04	1.199828e+00	2.511042e-04	1.199833e+00	2.348644e-04	1.199824e+00	2.559490e-04	
156	1.328334e-09	0.000000e+00	1.199836e+00	2.321171e-04	1.199835e+00	2.320923e-04	1.199835e+00	2.320952e-04	1.199828e+00	2.514035e-04	1.199833e+00	2.348032e-04	1.199824e+00	2.561226e-04	
157	1.338334e-09	0.000000e+00	1.199836e+00	2.321131e-04	1.199835e+00	2.321447e-04	1.199835e+00	2.321382e-04	1.199828e+00	2.511139e-04	1.199833e+00	2.348631e-04	1.199824e+00	2.559509e-04	
158	1.348334e-09	0.000000e+00	1.199836e+00	2.321170e-04	1.199835e+00	2.320921e-04	1.199835e+00	2.320945e-04	1.199828e+00	2.513946e-04	1.199833e+00	2.348045e-04	1.199824e+00	2.561209e-04	
159	1.358334e-09	0.000000e+00	1.199836e+00	2.321132e-04	1.199835e+00	2.321448e-04	1.199835e+00	2.321389e-04	1.199828e+00	2.511223e-04	1.199833e+00	2.348622e-04	1.199824e+00	2.559526e-04	
160	1.368334e-09	0.000000e+00	1.199836e+00	2.321169e-04	1.199835e+00	2.320921e-04	1.199835e+00	2.320940e-04	1.199828e+00	2.513869e-04	1.199833e+00	2.348054e-04	1.199824e+00	2.561194e-04	
161	1.378334e-09	0.000000e+00	1.199836e+00	2.321133e-04	1.199835e+00	2.321449e-04	1.199835e+00	2.321394e-04	1.199828e+00	2.511296e-04	1.199833e+00	2.348614e-04	1.199824e+00	2.559542e-04	
162	1.388334e-09	0.000000e+00	1.199836e+00	2.321168e-04	1.199835e+00	2.320920e-04	1.199835e+00	2.320936e-04	1.199828e+00	2.513802e-04	1.199833e+00	2.348062e-04	1.199824e+00	2.561180e-04	
163	1.398334e-09	0.000000e+00	1.199836e+00	2.321134e-04	1.199835e+00	2.321449e-04	1.199835e+00	2.321397e-04	1.199828e+00	2.511359e-04	1.199833e+00	2.348608e-04	1.199824e+00	2.559557e-04	
164	1.408334e-09	0.000000e+00	1.199836e+00	2.321167e-04	1.199835e+00	2.320921e-04	1.199835e+00	2.320933e-04	1.199828e+00	2.513744e-04	1.199833e+00	2.348069e-04	1.199824e+00	2.561167e-04	
165	1.418334e-09	0.000000e+00	1.199836e+00	2.321135e-04	1.199835e+00	2.321448e-04	1.199835e+00	2.321400e-04	1.199828e+00	2.511414e-04	1.199833e+00	2.348604e-04	1.199824e+00	2.559570e-04	
166	1.428334e-09	0.000000e+00	1.199836e+00	2.321166e-04	1.199835e+00	2.320921e-04	1.199835e+00	2.320931e-04	1.199828e+00	2.513694e-04	1.199833e+00	2.348074e-04	1.199824e+00	2.561154e-04	
167	1.438334e-09	0.000000e+00	1.199836e+00	2.321136e-04	1.199835e+00	2.321448e-04	1.199835e+00	2.321402e-04	1.199828e+00	2.511462e-04	1.199833e+00	2.348600e-04	1.199824e+00	2.559583e-04	
168	1.448334e-09	0.000000e+00	1.199836e+00	2.321165e-04	1.199835e+00	2.320922e-04	1.199835e+00	2.320930e-04	1.199828e+00	2.513649e-04	1.199833e+00	2.348079e-04	1.199824e+00	2.561143e-04	
169	1.458334e-09	0.000000e+00	1.199836e+00	2.321136e-04	1.199835e+00	2.321447e-04	1.199835e+00	2.321403e-04	1.199828e+00	2.511505e-04	1.199833e+00	2.348597e-04	1.199824e+00	2.559596e-04	
170	1.468334e-09	0.000000e+00	1.199836e+00	2.321164e-04	1.199835e+00	2.320922e-04	1.199835e+00	2.320929e-04	1.199828e+00	2.513610e-04	1.199833e+00	2.348082e-04	1.199824e+00	2.561131e-04	
171	1.478334e-09	0.000000e+00	1.199836e+00	2.321137e-04	1.199835e+00	2.321446e-04	1.199835e+00	2.321404e-04	1.199828e+00	2.511542e-04	1.199833e+00	2.348595e-04	1.199824e+00	2.559608e-04	
172	1.488334e-09	0.000000e+00	1.199836e+00	2.321164e-04	1.199835e+00	2.320923e-04	1.199835e+00	2.320929e-04	1.199828e+00	2.513576e-04	1.199833e+00	2.348085e-04	1.199824e+00	2.561121e-04	
173	1.498334e-09	0.000000e+00	1.199836e+00	2.321138e-04	1.199835e+00	2.321445e-04	1.199835e+00	2.321405e-04	1.199828e+00	2.511575e-04	1.199833e+00	2.348594e-04	1.199824e+00	2.559619e-04	
174	1.508334e-09	0.000000e+00	1.199836e+00	2.321163e-04	1.199835e+00	2.320924e-04	1.199835e+00	2.320929e-04	1.199828e+00	2.513545e-04	1.199833e+00	2.348088e-04	1.199824e+00	2.561110e-04	
175	1.518334e-09	0.000000e+00	1.199836e+00	2.321139e-04	1.199835e+00	2.321444e-04	1.199835e+00	2.321405e-04	1.199828e+00	2.511605e-04	1.199833e+00	2.348593e-04	1.199824e+00	2.559630e-04	
176	1.528334e-09	0.000000e+00	1.199836e+00	2.321162e-04	1.199835e+00	2.320926e-04	1.199835e+00	2.320929e-04	1.199828e+00	2.513518e-04	1.199833e+00	2.348090e-04	1.199824e+00	2.561100e-04	
177	1.538334e-09	0.000000e+00	1.199836e+00	2.321139e-04	1.199835e+00	2.321443e-04	1.199835e+00	2.321405e-04	1.199828e+00	2.511631e-04	1.199833e+00	2.348592e-04	1.199824e+00	2.559641e-04	
178	1.548334e-09	0.000000e+00	1.199836e+00	2.321162e-04	1.199835e+00	2.320927e-04	1.199835e+00	2.320929e-04	1.199828e+00	2.513494e-04	1.199833e+00	2.348092e-04	1.199824e+00	2.561090e-04	
179	1.558334e-09	0.000000e+00	1.199836e+00	2.321140e-04	1.199835e+00	2.321442e-04	1.199835e+00	2.321405e-04	1.199828e+00	2.511655e-04	1.199833e+00	2.348591e-04	1.199824e+00	2.559651e-04	
180	1.568334e-09	0.000000e+00	1.199836e+00	2.321161e-04	1.199835e+00	2.320928e-04	1.199835e+00	2.320930e-04	1.199828e+00	2.513472e-04	1.199833e+00	2.348093e-04	1.199824e+00	2.561081e-04	
181	1.578334e-09	0.000000e+00	1.199836e+00	2.321140e-04	1.199835e+00	2.321441e-04	1.199835e+00	2.321405e-04	1.199828e+00	2.511676e-04	1.199833e+00	2.348591e-04	1.199824e+00	2.559661e-04	
182	1.588334e-09	0.000000e+00	1.199836e+00	2.321161e-04	1.199835e+00	2.320929e-04	1.199835e+00	2.320931e-04	1.199828e+00	2.513453e-04	1.199833e+00	2.348095e-04	1.199824e+00	2.561072e-04	
183	1.598334e-09	0.000000e+00	1.199836e+00	2.321141e-04	1.199835e+00	2.321440e-04	1.199835e+00	2.321404e-04	1.199828e+00	2.511696e-04	1.199833e+00	2.348590e-04	1.199824e+00	2.559671e-04	
184	1.608334e-09	0.000000e+00	1.199836e+00	2.321160e-04	1.199835e+00	2.320930e-04	1.199835e+00	2.320932e-04	1.199828e+00	2.513435e-04	1.199833e+00	2.348096e-04	1.199824e+00	2.561063e-04	
185	1.618334e-09	0.000000e+00	1.199836e+00	2.321141e-04	1.199835e+00	2.321439e-04	1.199835e+00	2.321404e-04	1.199828e+00	2.511713e-04	1.199833e+00	2.348590e-04	1.199824e+00	2.559681e-04	
186	1.628334e-09	0.000000e+00	1.199836e+00	2.321160e-04	1.199835e+00	2.320931e-04	1.199835e+00	2.320932e-04	1.199828e+00	2.513419e-04	1.199833e+00	2.348098e-04	1.199824e+00	2.561054e-04	
187	1.638334e-09	0.000000e+00	1.199836e+00	2.321142e-04	1.199835e+00	2.321438e-04	1.199835e+00	2.321403e-04	1.199828e+00	2.511729e-04	1.199833e+00	2.348590e-04	1.199824e+00	2.559690e-04	
188	1.648334e-09	0.000000e+00	1.199836e+00	2.321159e-04	1.199835e+00	2.320933e-04	1.199835e+00	2.320933e-04	1.199828e+00	2.513404e-04	1.199833e+00	2.348099e-04	1.199824e+00	2.561045e-04	
189	1.658334e-09	0.000000e+00	1.199836e+00	2.321142e-04	1.199835e+00	2.321437e-04	1.199835e+00	2.321402e-04	1.199828e+00	2.511744e-04	1.199833e+00	2.348590e-04	1.199824e+00	2.559700e-04	
190	1.668334e-09	0.000000e+00	1.199836e+00	2.321159e-04	1.199835e+00	2.320934e-04	1.199835e+00	2.320934e-04	1.199828e+00	2.513390e-04	1.199833e+00	2.348100e-04	1.199824e+00	2.561037e-04	
191	1.678334e-09	0.000000e+00	1.199836e+00	2.321143e-04	1.199835e+00	2.321436e-04	1.199835e+00	2.321402e-04	1.199828e+00	2.511758e-04	1.199833e+00	2.348590e-04	1.199824e+00	2.559709e-04	
192	1.688334e-09	0.000000e+00	1.199836e+00	2.321158e-04	1.199835e+00	2.320935e-04	1.199835e+00	2.320935e-04	1.199828e+00	2.513377e-04	1.199833e+00	2.348101e-04	1.199824e+00	2.561028e-04	
193	1.698334e-09	0.000000e+00	1.199836e+00	2.321143e-04	1.199835e+00	2.321435e-04	1.199835e+00	2.321401e-04	1.199828e+00	2.511771e-04	1.199833e+00	2.348590e-04	1.199824e+00	2.559717e-04	
194	1.708334e-09	0.000000e+00	1.199836e+00	2.321158e-04	1.199835e+00	2.320936e-04	1.199835e+00	2.320936e-04	1.199828e+00	2.513366e-04	1.199833e+00	2.348102e-04	1.199824e+00	2.561020e-04	
195	1.718334e-09	0.000000e+00	1.199836e+00	2.321144e-04	1.199835e+00	2.321434e-04	1.199835e+00	2.321400e-04	1.199828e+00	2.511783e-04	1.199833e+00	2.348590e-04	1.199824e+00	2.559726e-04	
196	1.728334e-09	0.000000e+00	1.199836e+00	2.321158e-04	1.199835e+00	2.320937e-04	1.199835e+00	2.320937e-04	1.199828e+00	2.513355e-04	1.199833e+00	2.348103e-04	1.199824e+00	2.561013e-04	
197	1.738334e-09	0.000000e+00	1.199836e+00	2.321144e-04	1.199835e+00	2.321433e-04	1.199835e+00	2.321399e-04	1.199828e+00	2.511794e-04	1.199833e+00	2.348590e-04	1.199824e+00	2.559734e-04	
198	1.748334e-09	0.000000e+00	1.199836e+00	2.321157e-04	1.199835e+00	2.320938e-04	1.199835e+00	2.320939e-04	1.199828e+00	2.513344e-04	1.199833e+00	2.348104e-04	1.199824e+00	2.561005e-04	
199	1.758334e-09	0.000000e+00	1.199836e+00	2.321144e-04	1.199835e+00	2.321432e-04	1.199835e+00	2.321399e-04	1.199828e+00	2.511804e-04	1.199833e+00	2.348590e-04	1.199824e+00	2.559743e-04	
200	1.768334e-09	0.000000e+00	1.199836e+00	2.321157e-04	1.199835e+00	2.320939e-04	1.199835e+00	2.320940e-04	1.199828e+00	2.513335e-04	1.199833e+00	2.348106e-04	1.199824e+00	2.560997e-04	
201	1.778334e-09	0.000000e+00	1.199836e+00	2.321145e-04	1.199835e+00	2.321431e-04	1.199835e+00	2.321398e-04	1.199828e+00	2.511814e-04	1.199833e+00	2.348590e-04	1.199824e+00	2.559751e-04	
202	1.788334e-09	0.000000e+00	1.199836e+00	2.321157e-04	1.199835e+00	2.320940e-04	1.199835e+00	2.320941e-04	1.199828e+00	2.513326e-04	1.199833e+00	2.348107e-04	1.199824e+00	2.560990e-04	
203	1.798334e-09	0.000000e+00	1.199836e+00	2.321145e-04	1.199835e+00	2.321430e-04	1.199835e+00	2.321397e-04	1.199828e+00	2.511823e-04	1.199833e+00	2.348590e-04	1.199824e+00	2.559758e-04	
204	1.808334e-09	0.000000e+00	1.199836e+00	2.321156e-04	1.199835e+00	2.320941e-04	1.199835e+00	2.320942e-04	1.199828e+00	2.513317e-04	1.199833e+00	2.348108e-04	1.199824e+00	2.560983e-04	
205	1.818334e-09	0.000000e+00	1.199836e+00	2.321145e-04	1.199835e+00	2.321429e-04	1.199835e+00	2.321396e-04	1.199828e+00	2.511832e-04	1.199833e+00	2.348589e-04	1.199824e+00	2.559766e-04	
206	1.828334e-09	0.000000e+00	1.199836e+00	2.321156e-04	1.199835e+00	2.320942e-04	1.199835e+00	2.320943e-04	1.199828e+00	2.513309e-04	1.199833e+00	2.348109e-04	1.199824e+00	2.560976e-04	
207	1.838334e-09	0.000000e+00	1.199836e+00	2.321145e-04	1.199835e+00	2.321428e-04	1.199835e+00	2.321395e-04	1.199828e+00	2.511841e-04	1.199833e+00	2.348589e-04	1.199824e+00	2.559774e-04	
208	1.848334e-09	0.000000e+00	1.199836e+00	2.321156e-04	1.199835e+00	2.320943e-04	1.199835e+00	2.320944e-04	1.199828e+00	2.513301e-04	1.199833e+00	2.348110e-04	1.199824e+00	2.560969e-04	
209	1.858334e-09	0.000000e+00	1.199836e+00	2.321146e-04	1.199835e+00	2.321427e-04	1.199835e+00	2.321395e-04	1.199828e+00	2.511849e-04	1.199833e+00	2.348589e-04	1.199824e+00	2.559781e-04	
210	1.868334e-09	0.000000e+00	1.199836e+00	2.321155e-04	1.199835e+00	2.320944e-04	1.199835e+00	2.320945e-04	1.199828e+00	2.513294e-04	1.199833e+00	2.348111e-04	1.199824e+00	2.560962e-04	
211	1.878334e-09	0.000000e+00	1.199836e+00	2.321146e-04	1.199835e+00	2.321426e-04	1.199835e+00	2.321394e-04	1.199828e+00	2.511856e-04	1.199833e+00	2.348589e-04	1.199824e+00	2.559788e-04	
212	1.888334e-09	0.000000e+00	1.199836e+00	2.321155e-04	1.199835e+00	2.320945e-04	1.199835e+00	2.320946e-04	1.199828e+00	2.513287e-04	1.199833e+00	2.348112e-04	1.199824e+00	2.560956e-04	
213	1.898334e-09	0.000000e+00	1.199836e+00	2.321146e-04	1.199835e+00	2.321425e-04	1.199835e+00	2.321393e-04	1.199828e+00	2.511864e-04	1.199833e+00	2.348589e-04	1.199824e+00	2.559795e-04	
214	1.908334e-09	0.000000e+00	1.199836e+00	2.321155e-04	1.199835e+00	2.320946e-04	1.199835e+00	2.320947e-04	1.199828e+00	2.513280e-04	1.199833e+00	2.348113e-04	1.199824e+00	2.560949e-04	
215	1.918334e-09	0.000000e+00	1.199836e+00	2.321146e-04	1.199835e+00	2.321424e-04	1.199835e+00	2.321392e-04	1.199828e+00	2.511871e-04	1.199833e+00	2.348589e-04	1.199824e+00	2.559802e-04	
216	1.928334e-09	0.000000e+00	1.199836e+00	2.321155e-04	1.199835e+00	2.320947e-04	1.199835e+00	2.320948e-04	1.199828e+00	2.513274e-04	1.199833e+00	2.348114e-04	1.199824e+00	2.560943e-04	
217	1.938334e-09	0.000000e+00	1.199836e+00	2.321147e-04	1.199835e+00	2.321423e-04	1.199835e+00	2.321391e-04	1.199828e+00	2.511878e-04	1.199833e+00	2.348589e-04	1.199824e+00	2.559809e-04	
218	1.948334e-09	0.000000e+00	1.199836e+00	2.321154e-04	1.199835e+00	2.320948e-04	1.199835e+00	2.320949e-04	1.199828e+00	2.513268e-04	1.199833e+00	2.348115e-04	1.199824e+00	2.560937e-04	
219	1.958334e-09	0.000000e+00	1.199836e+00	2.321147e-04	1.199835e+00	2.321423e-04	1.199835e+00	2.321391e-04	1.199828e+00	2.511884e-04	1.199833e+00	2.348588e-04	1.199824e+00	2.559815e-04	
220	1.968334e-09	0.000000e+00	1.199836e+00	2.321154e-04	1.199835e+00	2.320949e-04	1.199835e+00	2.320950e-04	1.199828e+00	2.513262e-04	1.199833e+00	2.348116e-04	1.199824e+00	2.560931e-04	
221	1.978334e-09	0.000000e+00	1.199836e+00	2.321147e-04	1.199835e+00	2.321422e-04	1.199835e+00	2.321390e-04	1.199828e+00	2.511891e-04	1.199833e+00	2.348588e-04	1.199824e+00	2.559821e-04	
222	1.988334e-09	0.000000e+00	1.199836e+00	2.321154e-04	1.199835e+00	2.320949e-04	1.199835e+00	2.320951e-04	1.199828e+00	2.513256e-04	1.199833e+00	2.348118e-04	1.199824e+00	2.560926e-04	
223	1.998334e-09	0.000000e+00	1.199836e+00	2.321147e-04	1.199835e+00	2.321421e-04	1.199835e+00	2.321389e-04	1.199828e+00	2.511897e-04	1.199833e+00	2.348588e-04	1.199824e+00	2.559828e-04	
224	2.000000e-09	0.000000e+00	1.199836e+00	2.321153e-04	1.199835e+00	2.320951e-04	1.199835e+00	2.320954e-04	1.199828e+00	2.513234e-04	1.199833e+00	2.348121e-04	1.199824e+00	2.560903e-04	

                                                                                                                * spice from s2s
                                                                                                                Transient Analysis  Sat Feb  7 10:40:24  2009
------------------------------------------------------------------------------------------------------------------------------------------------------------------------------------------------------------------------------------------------
Index   time            v(n38)          v(n48)          v(n54)          v(n30)          v(n40)          v(n46)          v(n58)          v(n56)          v(n42)          v(n44)          v(n60)          v(n62)          v(n2)           
------------------------------------------------------------------------------------------------------------------------------------------------------------------------------------------------------------------------------------------------
0	0.000000e+00	0.000000e+00	1.200000e+00	0.000000e+00	1.200000e+00	0.000000e+00	1.200000e+00	0.000000e+00	0.000000e+00	0.000000e+00	1.200000e+00	0.000000e+00	0.000000e+00	1.200000e+00	
1	1.000000e-13	-6.203086e-04	1.156036e+00	-1.763035e-03	1.191505e+00	-2.057384e-03	1.132413e+00	-1.128157e-03	-4.272839e-06	-1.444890e-03	1.142512e+00	-1.175350e-03	-1.175352e-03	1.157893e+00	
2	1.262230e-13	-8.191796e-04	1.144940e+00	-2.314989e-03	1.188686e+00	-2.698464e-03	1.116064e+00	-1.485830e-03	-5.831739e-06	-1.902453e-03	1.128445e+00	-1.547746e-03	-1.547749e-03	1.147069e+00	
3	1.786689e-13	-1.279282e-03	1.123579e+00	-3.554628e-03	1.181977e+00	-4.126395e-03	1.085878e+00	-2.302185e-03	-1.001869e-05	-2.943839e-03	1.102171e+00	-2.397113e-03	-2.397117e-03	1.125853e+00	
4	2.835608e-13	-2.485259e-03	1.085396e+00	-6.517135e-03	1.163989e+00	-7.430466e-03	1.038199e+00	-4.359196e-03	-2.725330e-05	-5.530506e-03	1.059186e+00	-4.533410e-03	-4.533417e-03	1.085923e+00	
5	4.933445e-13	-5.452841e-03	1.023623e+00	-1.257441e-02	1.123275e+00	-1.378328e-02	9.765137e-01	-9.089375e-03	-1.184199e-04	-1.125115e-02	9.996636e-01	-9.431297e-03	-9.431312e-03	1.015239e+00	
6	9.129120e-13	-1.136375e-02	9.394621e-01	-2.076928e-02	1.059091e+00	-2.216823e-02	9.187444e-01	-1.753964e-02	-6.005564e-04	-2.076254e-02	9.361755e-01	-1.813851e-02	-1.813854e-02	9.046591e-01	
7	1.367143e-12	-1.606923e-02	8.853361e-01	-2.318762e-02	1.021800e+00	-2.577343e-02	8.969361e-01	-2.322937e-02	-1.534554e-03	-2.657069e-02	9.058602e-01	-2.397814e-02	-2.397817e-02	8.218508e-01	
8	2.094175e-12	-1.956525e-02	8.389729e-01	-2.032964e-02	9.971788e-01	-2.639065e-02	8.876292e-01	-2.610273e-02	-3.337241e-03	-2.911655e-02	8.859448e-01	-2.706323e-02	-2.706325e-02	7.433185e-01	
9	3.093462e-12	-1.947746e-02	8.176102e-01	-1.338499e-02	9.887864e-01	-2.346149e-02	8.959888e-01	-2.372224e-02	-5.171232e-03	-2.644057e-02	8.844896e-01	-2.518176e-02	-2.518177e-02	7.022294e-01	
10	4.768923e-12	-1.499524e-02	8.265917e-01	-2.658260e-03	9.932500e-01	-1.603494e-02	9.248890e-01	-1.534963e-02	-5.263453e-03	-1.805616e-02	9.046313e-01	-1.769208e-02	-1.769208e-02	7.125957e-01	
11	7.011601e-12	-8.169260e-03	8.675224e-01	9.224498e-03	1.009311e+00	-6.505268e-03	9.677871e-01	-4.650397e-03	-1.881082e-03	-7.641538e-03	9.433490e-01	-7.186922e-03	-7.186906e-03	7.777343e-01	
12	9.997867e-12	-1.444725e-03	9.278622e-01	2.032158e-02	1.033856e+00	2.079131e-03	1.018602e+00	4.701837e-03	2.997038e-03	1.498067e-03	9.935318e-01	3.365602e-03	3.365621e-03	8.698556e-01	
13	1.410969e-11	4.090589e-03	9.988401e-01	2.646772e-02	1.065018e+00	7.742519e-03	1.073387e+00	1.044842e-02	6.542784e-03	7.719694e-03	1.050325e+00	1.101030e-02	1.101032e-02	9.698174e-01	
14	1.955514e-11	7.147916e-03	1.067945e+00	2.480947e-02	1.098598e+00	9.576637e-03	1.122781e+00	1.174664e-02	7.863601e-03	9.967738e-03	1.104205e+00	1.360813e-02	1.360814e-02	1.058028e+00	
15	2.687633e-11	7.309325e-03	1.126173e+00	1.797534e-02	1.131392e+00	8.252212e-03	1.160788e+00	1.002402e-02	7.540448e-03	8.749947e-03	1.148006e+00	1.225370e-02	1.225370e-02	1.126130e+00	
16	3.570944e-11	5.570804e-03	1.163770e+00	1.102422e-02	1.157328e+00	5.522533e-03	1.183024e+00	7.238659e-03	6.001456e-03	5.881548e-03	1.175519e+00	9.143415e-03	9.143411e-03	1.166488e+00	
17	4.570944e-11	3.553238e-03	1.184013e+00	6.101286e-03	1.175161e+00	3.135610e-03	1.193376e+00	4.756935e-03	4.169216e-03	3.337610e-03	1.189561e+00	6.073763e-03	6.073759e-03	1.186288e+00	
18	5.570944e-11	2.150189e-03	1.192858e+00	3.351414e-03	1.185519e+00	1.741070e-03	1.197381e+00	3.092032e-03	2.765192e-03	1.844039e-03	1.195530e+00	3.930127e-03	3.930124e-03	1.194261e+00	
19	6.570944e-11	1.297647e-03	1.196771e+00	1.864832e-03	1.191544e+00	1.002342e-03	1.198838e+00	2.024186e-03	1.832204e-03	1.053753e-03	1.197965e+00	2.540319e-03	2.540316e-03	1.197496e+00	
20	7.570944e-11	8.159704e-04	1.198468e+00	1.084218e-03	1.195024e+00	6.303637e-04	1.199464e+00	1.352900e-03	1.232121e-03	6.553282e-04	1.199059e+00	1.665943e-03	1.665941e-03	1.198833e+00	
21	8.570944e-11	5.486350e-04	1.199234e+00	6.734377e-04	1.197053e+00	4.393771e-04	1.199652e+00	9.357086e-04	8.623053e-04	4.525859e-04	1.199466e+00	1.123344e-03	1.123343e-03	1.199395e+00	
22	9.570944e-11	4.050601e-04	1.199560e+00	4.650774e-04	1.198214e+00	3.455925e-04	1.199778e+00	6.776485e-04	6.292966e-04	3.520579e-04	1.199693e+00	7.888411e-04	7.888405e-04	1.199639e+00	
23	1.057094e-10	3.263601e-04	1.199715e+00	3.552427e-04	1.198898e+00	2.938879e-04	1.199784e+00	5.191251e-04	4.896317e-04	2.982894e-04	1.199744e+00	5.841807e-04	5.841803e-04	1.199746e+00	
24	1.157094e-10	2.848208e-04	1.199776e+00	3.019530e-04	1.199281e+00	2.698308e-04	1.199828e+00	4.214149e-04	4.004785e-04	2.719766e-04	1.199810e+00	4.586151e-04	4.586149e-04	1.199796e+00	
25	1.257094e-10	2.615753e-04	1.199811e+00	2.726149e-04	1.199515e+00	2.539170e-04	1.199809e+00	3.618216e-04	3.488245e-04	2.562199e-04	1.199800e+00	3.824929e-04	3.824927e-04	1.199819e+00	
26	1.357094e-10	2.495020e-04	1.199821e+00	2.597764e-04	1.199637e+00	2.481080e-04	1.199836e+00	3.249693e-04	3.144471e-04	2.491943e-04	1.199831e+00	3.356524e-04	3.356523e-04	1.199831e+00	
27	1.457094e-10	2.423953e-04	1.199830e+00	2.515648e-04	1.199720e+00	2.421628e-04	1.199816e+00	3.027038e-04	2.958412e-04	2.439130e-04	1.199814e+00	3.075806e-04	3.075805e-04	1.199836e+00	
28	1.557094e-10	2.388622e-04	1.199830e+00	2.489406e-04	1.199756e+00	2.414220e-04	1.199836e+00	2.887772e-04	2.822284e-04	2.422386e-04	1.199834e+00	2.900970e-04	2.900969e-04	1.199839e+00	
29	1.657094e-10	2.365761e-04	1.199834e+00	2.463039e-04	1.199789e+00	2.385595e-04	1.199820e+00	2.805195e-04	2.759014e-04	2.401367e-04	1.199818e+00	2.798397e-04	2.798397e-04	1.199840e+00	
30	1.757094e-10	2.355593e-04	1.199833e+00	2.461291e-04	1.199796e+00	2.392387e-04	1.199835e+00	2.752141e-04	2.702055e-04	2.399959e-04	1.199834e+00	2.732650e-04	2.732650e-04	1.199841e+00	
31	1.857094e-10	2.347732e-04	1.199834e+00	2.450370e-04	1.199812e+00	2.374546e-04	1.199821e+00	2.721955e-04	2.683725e-04	2.389599e-04	1.199821e+00	2.695765e-04	2.695765e-04	1.199842e+00	
32	1.957094e-10	2.345026e-04	1.199833e+00	2.453657e-04	1.199810e+00	2.384766e-04	1.199834e+00	2.701367e-04	2.657470e-04	2.392354e-04	1.199833e+00	2.670585e-04	2.670584e-04	1.199842e+00	
33	2.000000e-10	2.343274e-04	1.199834e+00	2.448607e-04	1.199818e+00	2.372602e-04	1.199823e+00	2.696752e-04	2.660071e-04	2.387068e-04	1.199823e+00	2.665062e-04	2.665062e-04	1.199842e+00	
34	2.010000e-10	2.343213e-04	1.199834e+00	2.449856e-04	1.199815e+00	2.377062e-04	1.199827e+00	2.695219e-04	2.656283e-04	2.388571e-04	1.199826e+00	2.663215e-04	2.663215e-04	1.199842e+00	
35	2.030000e-10	2.343001e-04	1.199834e+00	2.450433e-04	1.199815e+00	2.378051e-04	1.199829e+00	2.692891e-04	2.653274e-04	2.388928e-04	1.199828e+00	2.660381e-04	2.660381e-04	1.199842e+00	
36	2.070000e-10	2.342266e-04	1.199834e+00	2.449592e-04	1.199816e+00	2.376631e-04	1.199828e+00	2.689227e-04	2.650636e-04	2.388040e-04	1.199827e+00	2.655971e-04	2.655971e-04	1.199842e+00	
37	2.150000e-10	2.341374e-04	1.199834e+00	2.449494e-04	1.199817e+00	2.376854e-04	1.199828e+00	2.683414e-04	2.644906e-04	2.387732e-04	1.199828e+00	2.648993e-04	2.648992e-04	1.199842e+00	
38	2.250000e-10	2.340596e-04	1.199834e+00	2.448826e-04	1.199818e+00	2.375543e-04	1.199828e+00	2.678842e-04	2.641299e-04	2.386885e-04	1.199827e+00	2.643544e-04	2.643543e-04	1.199842e+00	
39	2.350000e-10	2.340218e-04	1.199834e+00	2.448957e-04	1.199819e+00	2.376017e-04	1.199828e+00	2.675916e-04	2.638245e-04	2.386888e-04	1.199828e+00	2.640081e-04	2.640080e-04	1.199842e+00	
40	2.450000e-10	2.339947e-04	1.199834e+00	2.448612e-04	1.199819e+00	2.375133e-04	1.199828e+00	2.674241e-04	2.637147e-04	2.386439e-04	1.199827e+00	2.638115e-04	2.638115e-04	1.199842e+00	
41	2.550000e-10	2.339836e-04	1.199834e+00	2.448801e-04	1.199819e+00	2.375712e-04	1.199828e+00	2.673109e-04	2.635772e-04	2.386593e-04	1.199828e+00	2.636796e-04	2.636795e-04	1.199842e+00	
42	2.650000e-10	2.339736e-04	1.199834e+00	2.448577e-04	1.199820e+00	2.375022e-04	1.199828e+00	2.672514e-04	2.635570e-04	2.386304e-04	1.199827e+00	2.636108e-04	2.636108e-04	1.199842e+00	
43	2.750000e-10	2.339707e-04	1.199834e+00	2.448744e-04	1.199819e+00	2.375587e-04	1.199828e+00	2.672059e-04	2.634863e-04	2.386483e-04	1.199828e+00	2.635587e-04	2.635587e-04	1.199842e+00	
44	2.850000e-10	2.339669e-04	1.199834e+00	2.448584e-04	1.199820e+00	2.375007e-04	1.199828e+00	2.671864e-04	2.634962e-04	2.386269e-04	1.199827e+00	2.635364e-04	2.635364e-04	1.199842e+00	
45	2.950000e-10	2.339662e-04	1.199834e+00	2.448716e-04	1.199819e+00	2.375524e-04	1.199828e+00	2.671668e-04	2.634538e-04	2.386436e-04	1.199827e+00	2.635144e-04	2.635143e-04	1.199842e+00	
46	3.050000e-10	2.339648e-04	1.199834e+00	2.448598e-04	1.199820e+00	2.375022e-04	1.199828e+00	2.671618e-04	2.634719e-04	2.386267e-04	1.199827e+00	2.635087e-04	2.635087e-04	1.199842e+00	
47	3.129048e-10	2.339646e-04	1.199834e+00	2.448696e-04	1.199819e+00	2.375481e-04	1.199828e+00	2.671534e-04	2.634441e-04	2.386411e-04	1.199827e+00	2.634994e-04	2.634993e-04	1.199842e+00	
48	3.208192e-10	2.339644e-04	1.199834e+00	2.448615e-04	1.199820e+00	2.375052e-04	1.199828e+00	2.671536e-04	2.634623e-04	2.386277e-04	1.199827e+00	2.634996e-04	2.634996e-04	1.199842e+00	
49	3.250000e-10	2.339639e-04	1.199834e+00	2.448675e-04	1.199820e+00	2.375432e-04	1.199828e+00	2.671495e-04	2.634435e-04	2.386387e-04	1.199827e+00	2.634951e-04	2.634951e-04	1.199842e+00	
50	3.260000e-10	2.339642e-04	1.199834e+00	2.448660e-04	1.199820e+00	2.375280e-04	1.199828e+00	2.671503e-04	2.634496e-04	2.386347e-04	1.199827e+00	2.634960e-04	2.634959e-04	1.199842e+00	
51	3.280000e-10	2.339641e-04	1.199834e+00	2.448646e-04	1.199820e+00	2.375238e-04	1.199828e+00	2.671502e-04	2.634516e-04	2.386332e-04	1.199827e+00	2.634959e-04	2.634958e-04	1.199842e+00	
52	3.320000e-10	2.339646e-04	1.199834e+00	2.448654e-04	1.199820e+00	2.375282e-04	1.199828e+00	2.671491e-04	2.634492e-04	2.386352e-04	1.199827e+00	2.634947e-04	2.634946e-04	1.199842e+00	
53	3.384598e-10	2.339691e-04	1.199834e+00	2.448648e-04	1.199820e+00	2.375319e-04	1.199828e+00	2.671483e-04	2.634497e-04	2.386404e-04	1.199827e+00	2.634937e-04	2.634937e-04	1.199842e+00	
54	3.457186e-10	2.339470e-04	1.199834e+00	2.448653e-04	1.199817e+00	2.374961e-04	1.199828e+00	2.671472e-04	2.634477e-04	2.386076e-04	1.199827e+00	2.634926e-04	2.634926e-04	1.199842e+00	
55	3.537099e-10	2.337742e-04	1.199834e+00	2.448649e-04	1.199801e+00	2.372467e-04	1.199828e+00	2.671467e-04	2.634481e-04	2.383773e-04	1.199827e+00	2.634921e-04	2.634920e-04	1.199842e+00	
56	3.614868e-10	2.354056e-04	1.199834e+00	2.448654e-04	1.199984e+00	2.399014e-04	1.199828e+00	2.671464e-04	2.634471e-04	2.407436e-04	1.199827e+00	2.634917e-04	2.634916e-04	1.199842e+00	
57	3.696657e-10	2.481552e-04	1.199834e+00	2.448672e-04	1.201248e+00	2.581413e-04	1.199828e+00	2.671484e-04	2.634503e-04	2.576663e-04	1.199828e+00	2.634935e-04	2.634934e-04	1.199842e+00	
58	3.778128e-10	1.721612e-04	1.199833e+00	2.448567e-04	1.192659e+00	1.317894e-04	1.199826e+00	2.671359e-04	2.634337e-04	1.453919e-04	1.199826e+00	2.634827e-04	2.634827e-04	1.199842e+00	
59	3.861967e-10	-5.150865e-04	1.199823e+00	2.447450e-04	1.120279e+00	-8.324571e-04	1.199809e+00	2.670197e-04	2.632947e-04	-7.486611e-04	1.199811e+00	2.633781e-04	2.633781e-04	1.199842e+00	
60	3.937930e-10	-5.361801e-04	1.199820e+00	2.447110e-04	9.473785e-01	4.329209e-04	1.199829e+00	2.670906e-04	2.634117e-04	2.766856e-04	1.199825e+00	2.634236e-04	2.634236e-04	1.199842e+00	
61	4.020538e-10	1.919115e-02	1.200114e+00	2.478924e-04	6.924153e-01	3.286968e-02	1.200410e+00	2.708680e-04	2.680489e-04	2.994257e-02	1.200306e+00	2.667742e-04	2.667742e-04	1.199842e+00	
62	4.098782e-10	9.617195e-02	1.201231e+00	2.599845e-04	4.859499e-01	1.601708e-01	1.202144e+00	2.834244e-04	2.826524e-04	1.491107e-01	1.201885e+00	2.787506e-04	2.787506e-04	1.199842e+00	
63	4.182670e-10	2.766596e-01	1.199930e+00	2.446633e-04	3.402789e-01	4.322756e-01	1.185679e+00	1.831213e-04	1.557398e-04	4.114070e-01	1.189610e+00	1.986152e-04	1.986150e-04	1.199842e+00	
64	4.271556e-10	5.413941e-01	1.164508e+00	-1.353150e-04	2.334688e-01	7.518122e-01	1.066838e+00	-4.453473e-04	-5.856246e-04	7.301568e-01	1.092271e+00	-4.081355e-04	-4.081365e-04	1.199837e+00	
65	4.371556e-10	8.148029e-01	9.966767e-01	-2.637643e-04	1.481346e-01	9.877364e-01	7.486504e-01	9.730115e-03	1.188480e-02	9.746123e-01	8.079986e-01	6.556564e-03	6.556574e-03	1.199830e+00	
66	4.467165e-10	9.877295e-01	6.947763e-01	2.369893e-02	9.467812e-02	1.098830e+00	4.140017e-01	9.611339e-02	1.142035e-01	1.092267e+00	4.778898e-01	7.376978e-02	7.376989e-02	1.200048e+00	
67	4.559830e-10	1.086324e+00	3.935562e-01	1.458653e-01	6.051247e-02	1.152751e+00	2.104962e-01	3.065472e-01	3.487909e-01	1.149672e+00	2.600369e-01	2.637548e-01	2.637550e-01	1.201168e+00	
68	4.643946e-10	1.137416e+00	2.135497e-01	3.697319e-01	4.030261e-02	1.175381e+00	1.078716e-01	5.334797e-01	5.837093e-01	1.173835e+00	1.437655e-01	4.961979e-01	4.961983e-01	1.200689e+00	
69	4.731366e-10	1.166022e+00	1.128897e-01	6.290605e-01	2.605833e-02	1.187472e+00	4.855873e-02	7.111792e-01	7.516363e-01	1.186512e+00	7.092167e-02	6.919549e-01	6.919552e-01	1.173257e+00	
70	4.825668e-10	1.182987e+00	5.497183e-02	8.381384e-01	1.632824e-02	1.193669e+00	2.321499e-02	8.354023e-01	8.702455e-01	1.193245e+00	3.497270e-02	8.262479e-01	8.262482e-01	1.037378e+00	
71	4.899803e-10	1.189714e+00	3.218470e-02	9.496881e-01	1.119039e-02	1.196473e+00	1.265115e-02	9.178270e-01	9.509685e-01	1.196178e+00	1.982851e-02	9.096224e-01	9.096227e-01	8.124317e-01	
72	4.975465e-10	1.194064e+00	1.902339e-02	1.038589e+00	7.721503e-03	1.197824e+00	8.170542e-03	9.947784e-01	1.018670e+00	1.197708e+00	1.240214e-02	9.871991e-01	9.871993e-01	5.222261e-01	
73	5.050409e-10	1.196382e+00	1.170014e-02	1.098484e+00	5.263760e-03	1.198761e+00	5.415904e-03	1.053063e+00	1.068419e+00	1.198652e+00	8.000232e-03	1.047201e+00	1.047201e+00	2.841716e-01	
74	5.121763e-10	1.197794e+00	7.499337e-03	1.134335e+00	3.749457e-03	1.199139e+00	3.736443e-03	1.095191e+00	1.105472e+00	1.199114e+00	5.549164e-03	1.091150e+00	1.091150e+00	1.493413e-01	
75	5.197753e-10	1.198610e+00	4.631449e-03	1.159582e+00	2.563337e-03	1.199450e+00	2.846898e-03	1.126748e+00	1.133510e+00	1.199404e+00	3.906469e-03	1.124500e+00	1.124500e+00	7.431727e-02	
76	5.283340e-10	1.199175e+00	2.831679e-03	1.176412e+00	1.750896e-03	1.199596e+00	1.763862e-03	1.151757e+00	1.156156e+00	1.199592e+00	2.557226e-03	1.150701e+00	1.150701e+00	3.331221e-02	
77	5.383340e-10	1.199494e+00	1.537679e-03	1.187782e+00	1.104412e-03	1.199711e+00	1.406362e-03	1.170231e+00	1.172938e+00	1.199692e+00	1.742157e-03	1.169983e+00	1.169983e+00	1.292313e-02	
78	5.483340e-10	1.199668e+00	9.687512e-04	1.193507e+00	7.732197e-04	1.199759e+00	7.430768e-04	1.181892e+00	1.183551e+00	1.199762e+00	1.060664e-03	1.181926e+00	1.181926e+00	5.203346e-03	
79	5.583340e-10	1.199743e+00	5.695201e-04	1.196640e+00	5.356206e-04	1.199790e+00	7.654118e-04	1.188792e+00	1.189836e+00	1.199780e+00	8.337213e-04	1.188945e+00	1.188945e+00	2.201473e-03	
80	5.683340e-10	1.199791e+00	4.526611e-04	1.198141e+00	4.367931e-04	1.199809e+00	3.560627e-04	1.193198e+00	1.193823e+00	1.199811e+00	5.081627e-04	1.193344e+00	1.193344e+00	1.055856e-03	
81	5.783340e-10	1.199808e+00	3.081506e-04	1.198999e+00	3.423724e-04	1.199814e+00	5.082419e-04	1.195724e+00	1.196126e+00	1.199809e+00	4.915600e-04	1.195855e+00	1.195855e+00	5.721157e-04	
82	5.883340e-10	1.199822e+00	3.076970e-04	1.199378e+00	3.216097e-04	1.199826e+00	2.186576e-04	1.197389e+00	1.197620e+00	1.199827e+00	3.091939e-04	1.197484e+00	1.197484e+00	3.860151e-04	
83	5.983340e-10	1.199826e+00	2.406102e-04	1.199616e+00	2.774927e-04	1.199823e+00	4.012827e-04	1.198294e+00	1.198450e+00	1.199820e+00	3.610346e-04	1.198365e+00	1.198365e+00	2.951625e-04	
84	6.083340e-10	1.199831e+00	2.652336e-04	1.199707e+00	2.820738e-04	1.199832e+00	1.766702e-04	1.198931e+00	1.199016e+00	1.199832e+00	2.410873e-04	1.198981e+00	1.198981e+00	2.602683e-04	
85	6.183340e-10	1.199831e+00	2.253434e-04	1.199773e+00	2.560749e-04	1.199826e+00	3.523457e-04	1.199244e+00	1.199307e+00	1.199825e+00	3.090069e-04	1.199279e+00	1.199279e+00	2.404378e-04	
86	6.283340e-10	1.199833e+00	2.512619e-04	1.199794e+00	2.683122e-04	1.199834e+00	1.696646e-04	1.199496e+00	1.199526e+00	1.199833e+00	2.204644e-04	1.199520e+00	1.199520e+00	2.323430e-04	
87	6.383340e-10	1.199833e+00	2.235998e-04	1.199812e+00	2.492459e-04	1.199828e+00	3.262019e-04	1.199596e+00	1.199622e+00	1.199827e+00	2.862477e-04	1.199612e+00	1.199612e+00	2.278644e-04	
88	6.483340e-10	1.199834e+00	2.454923e-04	1.199818e+00	2.633401e-04	1.199834e+00	1.745886e-04	1.199701e+00	1.199712e+00	1.199833e+00	2.165503e-04	1.199713e+00	1.199713e+00	2.252585e-04	
89	6.583340e-10	1.199833e+00	2.249699e-04	1.199821e+00	2.472610e-04	1.199828e+00	3.095951e-04	1.199726e+00	1.199739e+00	1.199828e+00	2.747059e-04	1.199734e+00	1.199734e+00	2.245919e-04	
90	6.683340e-10	1.199834e+00	2.423561e-04	1.199825e+00	2.613878e-04	1.199834e+00	1.828631e-04	1.199774e+00	1.199779e+00	1.199833e+00	2.181500e-04	1.199781e+00	1.199781e+00	2.233499e-04	
91	6.783340e-10	1.199833e+00	2.267589e-04	1.199823e+00	2.468546e-04	1.199829e+00	2.975244e-04	1.199775e+00	1.199782e+00	1.199828e+00	2.677596e-04	1.199780e+00	1.199780e+00	2.236361e-04	
92	6.883340e-10	1.199834e+00	2.402765e-04	1.199827e+00	2.604930e-04	1.199834e+00	1.914028e-04	1.199800e+00	1.199803e+00	1.199832e+00	2.212559e-04	1.199805e+00	1.199805e+00	2.228559e-04	
93	6.983340e-10	1.199834e+00	2.283359e-04	1.199824e+00	2.469418e-04	1.199829e+00	2.880342e-04	1.199794e+00	1.199799e+00	1.199829e+00	2.629378e-04	1.199797e+00	1.199797e+00	2.233100e-04	
94	7.083340e-10	1.199834e+00	2.387592e-04	1.199827e+00	2.599842e-04	1.199833e+00	1.991850e-04	1.199809e+00	1.199811e+00	1.199832e+00	2.244833e-04	1.199813e+00	1.199813e+00	2.227605e-04	
95	7.183340e-10	1.199834e+00	2.296046e-04	1.199824e+00	2.471676e-04	1.199829e+00	2.802877e-04	1.199802e+00	1.199805e+00	1.199829e+00	2.592762e-04	1.199805e+00	1.199805e+00	2.231710e-04	
96	7.283340e-10	1.199834e+00	2.376115e-04	1.199827e+00	2.596283e-04	1.199833e+00	2.059501e-04	1.199812e+00	1.199814e+00	1.199832e+00	2.273961e-04	1.199815e+00	1.199815e+00	2.227721e-04	
97	7.383340e-10	1.199834e+00	2.305963e-04	1.199824e+00	2.474191e-04	1.199830e+00	2.738642e-04	1.199805e+00	1.199808e+00	1.199830e+00	2.563632e-04	1.199808e+00	1.199808e+00	2.230960e-04	
98	7.483340e-10	1.199834e+00	2.367331e-04	1.199827e+00	2.593419e-04	1.199833e+00	2.117115e-04	1.199812e+00	1.199815e+00	1.199831e+00	2.298948e-04	1.199815e+00	1.199815e+00	2.228057e-04	
99	7.583340e-10	1.199834e+00	2.313636e-04	1.199824e+00	2.476629e-04	1.199830e+00	2.685068e-04	1.199807e+00	1.199810e+00	1.199830e+00	2.539951e-04	1.199809e+00	1.199809e+00	2.230483e-04	
100	7.683340e-10	1.199834e+00	2.360585e-04	1.199827e+00	2.590936e-04	1.199833e+00	2.165707e-04	1.199812e+00	1.199815e+00	1.199831e+00	2.319941e-04	1.199815e+00	1.199815e+00	2.228382e-04	
101	7.783340e-10	1.199834e+00	2.319550e-04	1.199825e+00	2.478907e-04	1.199830e+00	2.640305e-04	1.199808e+00	1.199810e+00	1.199830e+00	2.520515e-04	1.199810e+00	1.199810e+00	2.230154e-04	
102	7.883340e-10	1.199834e+00	2.355399e-04	1.199827e+00	2.588703e-04	1.199832e+00	2.206493e-04	1.199812e+00	1.199814e+00	1.199831e+00	2.337419e-04	1.199814e+00	1.199814e+00	2.228645e-04	
103	7.983340e-10	1.199834e+00	2.324101e-04	1.199825e+00	2.481019e-04	1.199830e+00	2.602897e-04	1.199808e+00	1.199811e+00	1.199830e+00	2.504498e-04	1.199811e+00	1.199811e+00	2.229918e-04	
104	8.083340e-10	1.199834e+00	2.351414e-04	1.199826e+00	2.586657e-04	1.199832e+00	2.240640e-04	1.199811e+00	1.199814e+00	1.199831e+00	2.351915e-04	1.199814e+00	1.199814e+00	2.228847e-04	
105	8.183340e-10	1.199834e+00	2.327601e-04	1.199825e+00	2.482979e-04	1.199830e+00	2.571643e-04	1.199809e+00	1.199811e+00	1.199830e+00	2.491273e-04	1.199811e+00	1.199811e+00	2.229745e-04	
106	8.283340e-10	1.199834e+00	2.348351e-04	1.199826e+00	2.584764e-04	1.199832e+00	2.269189e-04	1.199811e+00	1.199814e+00	1.199831e+00	2.363917e-04	1.199814e+00	1.199814e+00	2.228999e-04	
107	8.383340e-10	1.199834e+00	2.330290e-04	1.199825e+00	2.484805e-04	1.199831e+00	2.545540e-04	1.199809e+00	1.199811e+00	1.199830e+00	2.480344e-04	1.199811e+00	1.199811e+00	2.229617e-04	
108	8.483340e-10	1.199834e+00	2.345999e-04	1.199826e+00	2.583000e-04	1.199832e+00	2.293039e-04	1.199811e+00	1.199814e+00	1.199831e+00	2.373849e-04	1.199813e+00	1.199813e+00	2.229115e-04	
109	8.583340e-10	1.199834e+00	2.332357e-04	1.199825e+00	2.486511e-04	1.199831e+00	2.523745e-04	1.199809e+00	1.199812e+00	1.199830e+00	2.471306e-04	1.199812e+00	1.199812e+00	2.229521e-04	
110	8.683340e-10	1.199834e+00	2.344193e-04	1.199826e+00	2.581350e-04	1.199832e+00	2.312953e-04	1.199811e+00	1.199813e+00	1.199831e+00	2.382069e-04	1.199813e+00	1.199813e+00	2.229203e-04	
111	8.783340e-10	1.199834e+00	2.333944e-04	1.199825e+00	2.488112e-04	1.199831e+00	2.505552e-04	1.199809e+00	1.199812e+00	1.199830e+00	2.463827e-04	1.199812e+00	1.199812e+00	2.229448e-04	
112	8.883340e-10	1.199834e+00	2.342807e-04	1.199826e+00	2.579800e-04	1.199832e+00	2.329575e-04	1.199810e+00	1.199813e+00	1.199831e+00	2.388873e-04	1.199813e+00	1.199813e+00	2.229271e-04	
113	8.983340e-10	1.199834e+00	2.335162e-04	1.199825e+00	2.489618e-04	1.199831e+00	2.490368e-04	1.199809e+00	1.199812e+00	1.199830e+00	2.457636e-04	1.199812e+00	1.199812e+00	2.229392e-04	
114	9.083340e-10	1.199834e+00	2.341743e-04	1.199826e+00	2.578340e-04	1.199832e+00	2.343448e-04	1.199810e+00	1.199813e+00	1.199831e+00	2.394509e-04	1.199813e+00	1.199813e+00	2.229324e-04	
115	9.183340e-10	1.199834e+00	2.336097e-04	1.199826e+00	2.491038e-04	1.199831e+00	2.477697e-04	1.199810e+00	1.199812e+00	1.199830e+00	2.452507e-04	1.199812e+00	1.199812e+00	2.229349e-04	
116	9.283340e-10	1.199834e+00	2.340928e-04	1.199826e+00	2.576961e-04	1.199832e+00	2.355025e-04	1.199810e+00	1.199813e+00	1.199831e+00	2.399181e-04	1.199813e+00	1.199813e+00	2.229366e-04	
117	9.383340e-10	1.199834e+00	2.336814e-04	1.199826e+00	2.492382e-04	1.199831e+00	2.467124e-04	1.199810e+00	1.199812e+00	1.199830e+00	2.448254e-04	1.199812e+00	1.199812e+00	2.229316e-04	
118	9.483340e-10	1.199834e+00	2.340304e-04	1.199826e+00	2.575656e-04	1.199832e+00	2.364685e-04	1.199810e+00	1.199813e+00	1.199831e+00	2.403056e-04	1.199813e+00	1.199813e+00	2.229399e-04	
119	9.583340e-10	1.199834e+00	2.337363e-04	1.199826e+00	2.493654e-04	1.199831e+00	2.458302e-04	1.199810e+00	1.199812e+00	1.199830e+00	2.444724e-04	1.199812e+00	1.199812e+00	2.229290e-04	
120	9.683340e-10	1.199834e+00	2.339826e-04	1.199826e+00	2.574418e-04	1.199832e+00	2.372744e-04	1.199810e+00	1.199813e+00	1.199831e+00	2.406274e-04	1.199813e+00	1.199813e+00	2.229425e-04	
121	9.783340e-10	1.199834e+00	2.337784e-04	1.199826e+00	2.494863e-04	1.199831e+00	2.450942e-04	1.199810e+00	1.199812e+00	1.199830e+00	2.441792e-04	1.199812e+00	1.199812e+00	2.229269e-04	
122	9.883340e-10	1.199834e+00	2.339461e-04	1.199826e+00	2.573242e-04	1.199832e+00	2.379469e-04	1.199810e+00	1.199813e+00	1.199831e+00	2.408948e-04	1.199813e+00	1.199813e+00	2.229446e-04	
123	9.983340e-10	1.199834e+00	2.338106e-04	1.199826e+00	2.496012e-04	1.199831e+00	2.444800e-04	1.199810e+00	1.199812e+00	1.199830e+00	2.439354e-04	1.199812e+00	1.199812e+00	2.229253e-04	
124	1.008334e-09	1.199834e+00	2.339183e-04	1.199826e+00	2.572123e-04	1.199832e+00	2.385080e-04	1.199810e+00	1.199813e+00	1.199831e+00	2.411174e-04	1.199813e+00	1.199813e+00	2.229463e-04	
125	1.018334e-09	1.199834e+00	2.338352e-04	1.199826e+00	2.497106e-04	1.199831e+00	2.439677e-04	1.199810e+00	1.199812e+00	1.199830e+00	2.437323e-04	1.199812e+00	1.199812e+00	2.229241e-04	
126	1.028334e-09	1.199834e+00	2.338971e-04	1.199826e+00	2.571056e-04	1.199832e+00	2.389762e-04	1.199810e+00	1.199813e+00	1.199831e+00	2.413030e-04	1.199813e+00	1.199813e+00	2.229477e-04	
127	1.038334e-09	1.199834e+00	2.338539e-04	1.199826e+00	2.498151e-04	1.199831e+00	2.435401e-04	1.199810e+00	1.199812e+00	1.199830e+00	2.435628e-04	1.199812e+00	1.199812e+00	2.229231e-04	
128	1.048334e-09	1.199834e+00	2.338810e-04	1.199826e+00	2.570037e-04	1.199832e+00	2.393668e-04	1.199810e+00	1.199813e+00	1.199831e+00	2.414579e-04	1.199813e+00	1.199813e+00	2.229487e-04	
129	1.058334e-09	1.199834e+00	2.338681e-04	1.199826e+00	2.499148e-04	1.199831e+00	2.431834e-04	1.199810e+00	1.199812e+00	1.199830e+00	2.434213e-04	1.199812e+00	1.199812e+00	2.229224e-04	
130	1.068334e-09	1.199834e+00	2.338688e-04	1.199826e+00	2.569063e-04	1.199832e+00	2.396928e-04	1.199810e+00	1.199813e+00	1.199831e+00	2.415875e-04	1.199813e+00	1.199813e+00	2.229496e-04	
131	1.078334e-09	1.199834e+00	2.338790e-04	1.199826e+00	2.500103e-04	1.199831e+00	2.428858e-04	1.199810e+00	1.199812e+00	1.199830e+00	2.433027e-04	1.199812e+00	1.199812e+00	2.229219e-04	
132	1.088334e-09	1.199834e+00	2.338597e-04	1.199826e+00	2.568131e-04	1.199832e+00	2.399647e-04	1.199810e+00	1.199813e+00	1.199831e+00	2.416962e-04	1.199813e+00	1.199813e+00	2.229503e-04	
133	1.098334e-09	1.199834e+00	2.338871e-04	1.199826e+00	2.501017e-04	1.199831e+00	2.426374e-04	1.199810e+00	1.199812e+00	1.199830e+00	2.432032e-04	1.199812e+00	1.199812e+00	2.229215e-04	
134	1.108334e-09	1.199834e+00	2.338528e-04	1.199826e+00	2.567237e-04	1.199831e+00	2.401917e-04	1.199810e+00	1.199813e+00	1.199831e+00	2.417875e-04	1.199813e+00	1.199813e+00	2.229508e-04	
135	1.118334e-09	1.199834e+00	2.338933e-04	1.199826e+00	2.501894e-04	1.199831e+00	2.424301e-04	1.199810e+00	1.199812e+00	1.199830e+00	2.431195e-04	1.199812e+00	1.199812e+00	2.229212e-04	
136	1.128334e-09	1.199834e+00	2.338477e-04	1.199826e+00	2.566380e-04	1.199831e+00	2.403811e-04	1.199810e+00	1.199813e+00	1.199831e+00	2.418644e-04	1.199813e+00	1.199813e+00	2.229513e-04	
137	1.138334e-09	1.199834e+00	2.338978e-04	1.199826e+00	2.502736e-04	1.199831e+00	2.422571e-04	1.199810e+00	1.199812e+00	1.199830e+00	2.430489e-04	1.199812e+00	1.199812e+00	2.229211e-04	
138	1.148334e-09	1.199834e+00	2.338440e-04	1.199826e+00	2.565556e-04	1.199831e+00	2.405392e-04	1.199810e+00	1.199813e+00	1.199831e+00	2.419295e-04	1.199813e+00	1.199813e+00	2.229516e-04	
139	1.158334e-09	1.199834e+00	2.339012e-04	1.199826e+00	2.503545e-04	1.199831e+00	2.421127e-04	1.199810e+00	1.199812e+00	1.199830e+00	2.429891e-04	1.199812e+00	1.199812e+00	2.229210e-04	
140	1.168334e-09	1.199834e+00	2.338413e-04	1.199826e+00	2.564764e-04	1.199831e+00	2.406712e-04	1.199810e+00	1.199813e+00	1.199831e+00	2.419846e-04	1.199813e+00	1.199813e+00	2.229518e-04	
141	1.178334e-09	1.199834e+00	2.339037e-04	1.199826e+00	2.504324e-04	1.199831e+00	2.419922e-04	1.199810e+00	1.199812e+00	1.199830e+00	2.429383e-04	1.199812e+00	1.199812e+00	2.229210e-04	
142	1.188334e-09	1.199834e+00	2.338393e-04	1.199826e+00	2.564002e-04	1.199831e+00	2.407814e-04	1.199810e+00	1.199813e+00	1.199831e+00	2.420316e-04	1.199813e+00	1.199813e+00	2.229520e-04	
143	1.198334e-09	1.199834e+00	2.339055e-04	1.199826e+00	2.505074e-04	1.199831e+00	2.418916e-04	1.199810e+00	1.199812e+00	1.199830e+00	2.428949e-04	1.199812e+00	1.199812e+00	2.229211e-04	
144	1.208334e-09	1.199834e+00	2.338380e-04	1.199826e+00	2.563267e-04	1.199831e+00	2.408734e-04	1.199810e+00	1.199813e+00	1.199831e+00	2.420717e-04	1.199813e+00	1.199813e+00	2.229521e-04	
145	1.218334e-09	1.199834e+00	2.339068e-04	1.199826e+00	2.505796e-04	1.199831e+00	2.418075e-04	1.199810e+00	1.199812e+00	1.199830e+00	2.428578e-04	1.199812e+00	1.199812e+00	2.229212e-04	
146	1.228334e-09	1.199834e+00	2.338372e-04	1.199826e+00	2.562559e-04	1.199831e+00	2.409503e-04	1.199810e+00	1.199813e+00	1.199831e+00	2.421061e-04	1.199813e+00	1.199813e+00	2.229521e-04	
147	1.238334e-09	1.199834e+00	2.339077e-04	1.199826e+00	2.506493e-04	1.199831e+00	2.417373e-04	1.199810e+00	1.199812e+00	1.199830e+00	2.428259e-04	1.199812e+00	1.199812e+00	2.229213e-04	
148	1.248334e-09	1.199834e+00	2.338366e-04	1.199826e+00	2.561876e-04	1.199831e+00	2.410145e-04	1.199810e+00	1.199813e+00	1.199831e+00	2.421358e-04	1.199813e+00	1.199813e+00	2.229521e-04	
149	1.258334e-09	1.199834e+00	2.339082e-04	1.199826e+00	2.507165e-04	1.199831e+00	2.416786e-04	1.199810e+00	1.199812e+00	1.199830e+00	2.427983e-04	1.199812e+00	1.199812e+00	2.229215e-04	
150	1.268334e-09	1.199834e+00	2.338364e-04	1.199826e+00	2.561217e-04	1.199831e+00	2.410682e-04	1.199810e+00	1.199813e+00	1.199831e+00	2.421616e-04	1.199813e+00	1.199813e+00	2.229521e-04	
151	1.278334e-09	1.199834e+00	2.339086e-04	1.199826e+00	2.507815e-04	1.199831e+00	2.416296e-04	1.199810e+00	1.199812e+00	1.199830e+00	2.427743e-04	1.199812e+00	1.199812e+00	2.229217e-04	
152	1.288334e-09	1.199834e+00	2.338363e-04	1.199826e+00	2.560579e-04	1.199831e+00	2.411130e-04	1.199810e+00	1.199813e+00	1.199831e+00	2.421841e-04	1.199813e+00	1.199813e+00	2.229520e-04	
153	1.298334e-09	1.199834e+00	2.339087e-04	1.199826e+00	2.508442e-04	1.199831e+00	2.415886e-04	1.199810e+00	1.199812e+00	1.199830e+00	2.427533e-04	1.199812e+00	1.199812e+00	2.229219e-04	
154	1.308334e-09	1.199834e+00	2.338364e-04	1.199826e+00	2.559964e-04	1.199831e+00	2.411506e-04	1.199810e+00	1.199813e+00	1.199831e+00	2.422037e-04	1.199813e+00	1.199813e+00	2.229520e-04	
155	1.318334e-09	1.199834e+00	2.339088e-04	1.199826e+00	2.509049e-04	1.199831e+00	2.415543e-04	1.199810e+00	1.199812e+00	1.199830e+00	2.427349e-04	1.199812e+00	1.199812e+00	2.229222e-04	
156	1.328334e-09	1.199834e+00	2.338366e-04	1.199826e+00	2.559368e-04	1.199831e+00	2.411820e-04	1.199810e+00	1.199813e+00	1.199831e+00	2.422211e-04	1.199813e+00	1.199813e+00	2.229519e-04	
157	1.338334e-09	1.199834e+00	2.339087e-04	1.199826e+00	2.509636e-04	1.199831e+00	2.415256e-04	1.199810e+00	1.199812e+00	1.199830e+00	2.427186e-04	1.199812e+00	1.199812e+00	2.229224e-04	
158	1.348334e-09	1.199834e+00	2.338368e-04	1.199826e+00	2.558791e-04	1.199831e+00	2.412083e-04	1.199810e+00	1.199813e+00	1.199831e+00	2.422365e-04	1.199813e+00	1.199813e+00	2.229517e-04	
159	1.358334e-09	1.199834e+00	2.339086e-04	1.199826e+00	2.510205e-04	1.199831e+00	2.415015e-04	1.199810e+00	1.199812e+00	1.199830e+00	2.427041e-04	1.199812e+00	1.199812e+00	2.229227e-04	
160	1.368334e-09	1.199834e+00	2.338371e-04	1.199826e+00	2.558233e-04	1.199831e+00	2.412304e-04	1.199810e+00	1.199813e+00	1.199831e+00	2.422502e-04	1.199813e+00	1.199813e+00	2.229516e-04	
161	1.378334e-09	1.199834e+00	2.339084e-04	1.199826e+00	2.510755e-04	1.199831e+00	2.414813e-04	1.199810e+00	1.199812e+00	1.199830e+00	2.426912e-04	1.199812e+00	1.199812e+00	2.229230e-04	
162	1.388334e-09	1.199834e+00	2.338375e-04	1.199826e+00	2.557693e-04	1.199831e+00	2.412489e-04	1.199810e+00	1.199813e+00	1.199831e+00	2.422625e-04	1.199813e+00	1.199813e+00	2.229515e-04	
163	1.398334e-09	1.199834e+00	2.339082e-04	1.199826e+00	2.511288e-04	1.199831e+00	2.414643e-04	1.199810e+00	1.199812e+00	1.199830e+00	2.426795e-04	1.199812e+00	1.199812e+00	2.229233e-04	
164	1.408334e-09	1.199834e+00	2.338379e-04	1.199826e+00	2.557169e-04	1.199831e+00	2.412645e-04	1.199810e+00	1.199813e+00	1.199831e+00	2.422736e-04	1.199813e+00	1.199813e+00	2.229513e-04	
165	1.418334e-09	1.199834e+00	2.339080e-04	1.199826e+00	2.511804e-04	1.199831e+00	2.414501e-04	1.199810e+00	1.199812e+00	1.199830e+00	2.426689e-04	1.199812e+00	1.199812e+00	2.229236e-04	
166	1.428334e-09	1.199834e+00	2.338382e-04	1.199826e+00	2.556662e-04	1.199831e+00	2.412776e-04	1.199810e+00	1.199813e+00	1.199831e+00	2.422837e-04	1.199813e+00	1.199813e+00	2.229512e-04	
[...]
45	2.950000e-10	1.199842e+00	1.199842e+00	1.199842e+00	1.199842e+00	1.199842e+00	1.199842e+00	1.199842e+00	
46	3.050000e-10	1.199842e+00	1.199842e+00	1.199842e+00	1.199842e+00	1.199842e+00	1.199842e+00	1.199842e+00	
47	3.129048e-10	1.199842e+00	1.199842e+00	1.199842e+00	1.199842e+00	1.199842e+00	1.199842e+00	1.199842e+00	
48	3.208192e-10	1.199842e+00	1.199842e+00	1.199842e+00	1.199842e+00	1.199842e+00	1.199842e+00	1.199842e+00	
49	3.250000e-10	1.199842e+00	1.199842e+00	1.199842e+00	1.199842e+00	1.199842e+00	1.199842e+00	1.199842e+00	
50	3.260000e-10	1.199842e+00	1.199842e+00	1.199842e+00	1.199842e+00	1.199842e+00	1.199842e+00	1.199842e+00	
51	3.280000e-10	1.199842e+00	1.199842e+00	1.199842e+00	1.199842e+00	1.199842e+00	1.199842e+00	1.199842e+00	
52	3.320000e-10	1.199842e+00	1.199842e+00	1.199842e+00	1.199842e+00	1.199842e+00	1.199842e+00	1.199842e+00	
53	3.384598e-10	1.199842e+00	1.199842e+00	1.199842e+00	1.199842e+00	1.199842e+00	1.199842e+00	1.199842e+00	
54	3.457186e-10	1.199842e+00	1.199842e+00	1.199842e+00	1.199842e+00	1.199842e+00	1.199842e+00	1.199842e+00	
55	3.537099e-10	1.199842e+00	1.199842e+00	1.199842e+00	1.199842e+00	1.199842e+00	1.199842e+00	1.199842e+00	
56	3.614868e-10	1.199842e+00	1.199842e+00	1.199842e+00	1.199842e+00	1.199842e+00	1.199842e+00	1.199842e+00	
57	3.696657e-10	1.199842e+00	1.199842e+00	1.199842e+00	1.199842e+00	1.199842e+00	1.199842e+00	1.199842e+00	
58	3.778128e-10	1.199842e+00	1.199842e+00	1.199842e+00	1.199842e+00	1.199842e+00	1.199842e+00	1.199842e+00	
59	3.861967e-10	1.199842e+00	1.199842e+00	1.199842e+00	1.199842e+00	1.199842e+00	1.199842e+00	1.199842e+00	
60	3.937930e-10	1.199842e+00	1.199842e+00	1.199842e+00	1.199842e+00	1.199842e+00	1.199842e+00	1.199842e+00	
61	4.020538e-10	1.199842e+00	1.199842e+00	1.199842e+00	1.199842e+00	1.199842e+00	1.199842e+00	1.199842e+00	
62	4.098782e-10	1.199842e+00	1.199842e+00	1.199842e+00	1.199842e+00	1.199842e+00	1.199842e+00	1.199842e+00	
63	4.182670e-10	1.199842e+00	1.199842e+00	1.199840e+00	1.199841e+00	1.199841e+00	1.199841e+00	1.199841e+00	
64	4.271556e-10	1.199838e+00	1.199838e+00	1.199828e+00	1.199832e+00	1.199832e+00	1.199828e+00	1.199828e+00	
65	4.371556e-10	1.199834e+00	1.199834e+00	1.200030e+00	1.199972e+00	1.199972e+00	1.199975e+00	1.199975e+00	
66	4.467165e-10	1.200081e+00	1.200081e+00	1.201623e+00	1.201077e+00	1.201077e+00	1.201335e+00	1.201335e+00	
67	4.559830e-10	1.201213e+00	1.201213e+00	1.197036e+00	1.196415e+00	1.196415e+00	1.199910e+00	1.199910e+00	
68	4.643946e-10	1.196380e+00	1.196380e+00	1.147188e+00	1.155860e+00	1.155860e+00	1.160225e+00	1.160225e+00	
69	4.731366e-10	1.149246e+00	1.149246e+00	9.706090e-01	1.014548e+00	1.014548e+00	9.971304e-01	9.971301e-01	
70	4.825668e-10	9.755479e-01	9.755479e-01	6.231379e-01	7.342963e-01	7.342963e-01	6.501424e-01	6.501420e-01	
71	4.899803e-10	7.351887e-01	7.351887e-01	3.330333e-01	4.909048e-01	4.909048e-01	3.443578e-01	3.443575e-01	
72	4.975465e-10	4.751590e-01	4.751590e-01	1.431883e-01	3.046150e-01	3.046150e-01	1.402983e-01	1.402983e-01	
73	5.050409e-10	2.862774e-01	2.862774e-01	5.909342e-02	1.870746e-01	1.870746e-01	5.441109e-02	5.441114e-02	
74	5.121763e-10	1.752507e-01	1.752507e-01	2.542675e-02	1.162194e-01	1.162194e-01	2.253270e-02	2.253274e-02	
75	5.197753e-10	1.026432e-01	1.026432e-01	1.067579e-02	6.985284e-02	6.985284e-02	9.114502e-03	9.114524e-03	
76	5.283340e-10	5.581925e-02	5.581925e-02	4.366661e-03	3.912064e-02	3.912064e-02	3.771210e-03	3.771217e-03	
77	5.383340e-10	2.714426e-02	2.714426e-02	1.857569e-03	1.980748e-02	1.980748e-02	1.648163e-03	1.648166e-03	
78	5.483340e-10	1.321988e-02	1.321988e-02	1.001738e-03	1.010887e-02	1.010887e-02	9.488386e-04	9.488388e-04	
79	5.583340e-10	6.520128e-03	6.520128e-03	6.494078e-04	5.222439e-03	5.222439e-03	6.168254e-04	6.168257e-04	
80	5.683340e-10	3.253663e-03	3.253663e-03	4.658107e-04	2.780147e-03	2.780147e-03	4.564736e-04	4.564734e-04	
81	5.783340e-10	1.699921e-03	1.699921e-03	3.693556e-04	1.522994e-03	1.522994e-03	3.576885e-04	3.576886e-04	
82	5.883340e-10	9.293745e-04	9.293745e-04	3.089019e-04	9.046975e-04	9.046975e-04	3.051575e-04	3.051574e-04	
83	5.983340e-10	5.716390e-04	5.716390e-04	2.761022e-04	5.689300e-04	5.689300e-04	2.708812e-04	2.708813e-04	
84	6.083340e-10	3.870782e-04	3.870782e-04	2.541400e-04	4.128440e-04	4.128440e-04	2.525295e-04	2.525295e-04	
85	6.183340e-10	3.062121e-04	3.062121e-04	2.425343e-04	3.171012e-04	3.171012e-04	2.401998e-04	2.401998e-04	
86	6.283340e-10	2.606788e-04	2.606788e-04	2.343548e-04	2.791663e-04	2.791663e-04	2.337147e-04	2.337147e-04	
87	6.383340e-10	2.432591e-04	2.432591e-04	2.301923e-04	2.488228e-04	2.488228e-04	2.291534e-04	2.291534e-04	
88	6.483340e-10	2.313717e-04	2.313717e-04	2.271566e-04	2.410001e-04	2.410001e-04	2.269255e-04	2.269255e-04	
89	6.583340e-10	2.280998e-04	2.280998e-04	2.256358e-04	2.298749e-04	2.298749e-04	2.251657e-04	2.251657e-04	
90	6.683340e-10	2.246881e-04	2.246881e-04	2.245386e-04	2.293752e-04	2.293752e-04	2.244640e-04	2.244640e-04	
91	6.783340e-10	2.243439e-04	2.243439e-04	2.239537e-04	2.245827e-04	2.245827e-04	2.237312e-04	2.237312e-04	
92	6.883340e-10	2.232296e-04	2.232296e-04	2.235862e-04	2.255317e-04	2.255317e-04	2.235647e-04	2.235647e-04	
93	6.983340e-10	2.233628e-04	2.233628e-04	2.233350e-04	2.231607e-04	2.231607e-04	2.232216e-04	2.232216e-04	
94	7.083340e-10	2.229479e-04	2.229479e-04	2.232379e-04	2.241288e-04	2.241288e-04	2.232302e-04	2.232302e-04	
95	7.183340e-10	2.230826e-04	2.230826e-04	2.231102e-04	2.228391e-04	2.228391e-04	2.230463e-04	2.230463e-04	
96	7.283340e-10	2.229136e-04	2.229136e-04	2.231080e-04	2.235571e-04	2.235571e-04	2.231009e-04	2.231009e-04	
97	7.383340e-10	2.229922e-04	2.229922e-04	2.230314e-04	2.228159e-04	2.228159e-04	2.229911e-04	2.229911e-04	
98	7.483340e-10	2.229217e-04	2.229217e-04	2.230572e-04	2.232973e-04	2.232973e-04	2.230470e-04	2.230470e-04	
99	7.583340e-10	2.229590e-04	2.229590e-04	2.230062e-04	2.228589e-04	2.228589e-04	2.229781e-04	2.229781e-04	
100	7.683340e-10	2.229313e-04	2.229313e-04	2.230353e-04	2.231675e-04	2.231675e-04	2.230216e-04	2.230216e-04	
101	7.783340e-10	2.229457e-04	2.229457e-04	2.230005e-04	2.229048e-04	2.229048e-04	2.229791e-04	2.229791e-04	
102	7.883340e-10	2.229369e-04	2.229369e-04	2.230243e-04	2.230978e-04	2.230978e-04	2.230075e-04	2.230075e-04	
103	7.983340e-10	2.229402e-04	2.229402e-04	2.230015e-04	2.229398e-04	2.229398e-04	2.229842e-04	2.229842e-04	
104	8.083340e-10	2.229395e-04	2.229395e-04	2.230177e-04	2.230585e-04	2.230585e-04	2.229985e-04	2.229985e-04	
105	8.183340e-10	2.229381e-04	2.229381e-04	2.230045e-04	2.229636e-04	2.229636e-04	2.229898e-04	2.229898e-04	
106	8.283340e-10	2.229405e-04	2.229405e-04	2.230131e-04	2.230356e-04	2.230356e-04	2.229922e-04	2.229922e-04	
107	8.383340e-10	2.229375e-04	2.229375e-04	2.230077e-04	2.229790e-04	2.229790e-04	2.229949e-04	2.229949e-04	
108	8.483340e-10	2.229406e-04	2.229406e-04	2.230097e-04	2.230221e-04	2.230221e-04	2.229875e-04	2.229875e-04	
109	8.583340e-10	2.229375e-04	2.229375e-04	2.230106e-04	2.229888e-04	2.229888e-04	2.229991e-04	2.229991e-04	
110	8.683340e-10	2.229405e-04	2.229405e-04	2.230071e-04	2.230141e-04	2.230141e-04	2.229839e-04	2.229839e-04	
111	8.783340e-10	2.229377e-04	2.229377e-04	2.230131e-04	2.229948e-04	2.229948e-04	2.230025e-04	2.230025e-04	
112	8.883340e-10	2.229402e-04	2.229402e-04	2.230050e-04	2.230093e-04	2.230093e-04	2.229812e-04	2.229812e-04	
113	8.983340e-10	2.229380e-04	2.229380e-04	2.230152e-04	2.229985e-04	2.229985e-04	2.230053e-04	2.230053e-04	
114	9.083340e-10	2.229400e-04	2.229400e-04	2.230034e-04	2.230065e-04	2.230065e-04	2.229791e-04	2.229791e-04	
115	9.183340e-10	2.229382e-04	2.229382e-04	2.230168e-04	2.230007e-04	2.230007e-04	2.230075e-04	2.230075e-04	
116	9.283340e-10	2.229398e-04	2.229398e-04	2.230021e-04	2.230048e-04	2.230048e-04	2.229775e-04	2.229775e-04	
117	9.383340e-10	2.229384e-04	2.229384e-04	2.230182e-04	2.230020e-04	2.230020e-04	2.230092e-04	2.230092e-04	
118	9.483340e-10	2.229397e-04	2.229397e-04	2.230011e-04	2.230039e-04	2.230039e-04	2.229763e-04	2.229763e-04	
119	9.583340e-10	2.229386e-04	2.229386e-04	2.230193e-04	2.230028e-04	2.230028e-04	2.230106e-04	2.230106e-04	
120	9.683340e-10	2.229396e-04	2.229396e-04	2.230004e-04	2.230033e-04	2.230033e-04	2.229754e-04	2.229754e-04	
121	9.783340e-10	2.229387e-04	2.229387e-04	2.230201e-04	2.230032e-04	2.230032e-04	2.230116e-04	2.230116e-04	
122	9.883340e-10	2.229396e-04	2.229396e-04	2.229998e-04	2.230031e-04	2.230031e-04	2.229747e-04	2.229747e-04	
123	9.983340e-10	2.229388e-04	2.229388e-04	2.230208e-04	2.230035e-04	2.230035e-04	2.230125e-04	2.230125e-04	
124	1.008334e-09	2.229396e-04	2.229396e-04	2.229994e-04	2.230030e-04	2.230030e-04	2.229743e-04	2.229743e-04	
125	1.018334e-09	2.229389e-04	2.229389e-04	2.230214e-04	2.230036e-04	2.230036e-04	2.230131e-04	2.230131e-04	
126	1.028334e-09	2.229395e-04	2.229395e-04	2.229991e-04	2.230029e-04	2.230029e-04	2.229740e-04	2.229740e-04	
127	1.038334e-09	2.229390e-04	2.229390e-04	2.230218e-04	2.230037e-04	2.230037e-04	2.230136e-04	2.230136e-04	
128	1.048334e-09	2.229396e-04	2.229396e-04	2.229989e-04	2.230029e-04	2.230029e-04	2.229738e-04	2.229738e-04	
129	1.058334e-09	2.229390e-04	2.229390e-04	2.230221e-04	2.230037e-04	2.230037e-04	2.230139e-04	2.230139e-04	
130	1.068334e-09	2.229396e-04	2.229396e-04	2.229988e-04	2.230030e-04	2.230030e-04	2.229738e-04	2.229738e-04	
131	1.078334e-09	2.229390e-04	2.229390e-04	2.230224e-04	2.230037e-04	2.230037e-04	2.230142e-04	2.230142e-04	
132	1.088334e-09	2.229396e-04	2.229396e-04	2.229987e-04	2.230030e-04	2.230030e-04	2.229738e-04	2.229738e-04	
133	1.098334e-09	2.229391e-04	2.229391e-04	2.230226e-04	2.230037e-04	2.230037e-04	2.230144e-04	2.230144e-04	
134	1.108334e-09	2.229396e-04	2.229396e-04	2.229987e-04	2.230031e-04	2.230031e-04	2.229739e-04	2.229739e-04	
135	1.118334e-09	2.229391e-04	2.229391e-04	2.230227e-04	2.230037e-04	2.230037e-04	2.230145e-04	2.230145e-04	
136	1.128334e-09	2.229396e-04	2.229396e-04	2.229988e-04	2.230032e-04	2.230032e-04	2.229741e-04	2.229741e-04	
137	1.138334e-09	2.229392e-04	2.229392e-04	2.230228e-04	2.230037e-04	2.230037e-04	2.230145e-04	2.230145e-04	
138	1.148334e-09	2.229397e-04	2.229397e-04	2.229988e-04	2.230032e-04	2.230032e-04	2.229743e-04	2.229743e-04	
139	1.158334e-09	2.229392e-04	2.229392e-04	2.230229e-04	2.230037e-04	2.230037e-04	2.230145e-04	2.230145e-04	
140	1.168334e-09	2.229397e-04	2.229397e-04	2.229989e-04	2.230033e-04	2.230033e-04	2.229745e-04	2.229745e-04	
141	1.178334e-09	2.229392e-04	2.229392e-04	2.230229e-04	2.230037e-04	2.230037e-04	2.230144e-04	2.230144e-04	
142	1.188334e-09	2.229397e-04	2.229397e-04	2.229991e-04	2.230033e-04	2.230033e-04	2.229748e-04	2.229748e-04	
143	1.198334e-09	2.229393e-04	2.229393e-04	2.230229e-04	2.230037e-04	2.230037e-04	2.230144e-04	2.230144e-04	
144	1.208334e-09	2.229397e-04	2.229397e-04	2.229992e-04	2.230034e-04	2.230034e-04	2.229751e-04	2.229751e-04	
145	1.218334e-09	2.229393e-04	2.229393e-04	2.230229e-04	2.230037e-04	2.230037e-04	2.230143e-04	2.230143e-04	
146	1.228334e-09	2.229397e-04	2.229397e-04	2.229994e-04	2.230034e-04	2.230034e-04	2.229754e-04	2.229754e-04	
147	1.238334e-09	2.229393e-04	2.229393e-04	2.230228e-04	2.230037e-04	2.230037e-04	2.230141e-04	2.230141e-04	
148	1.248334e-09	2.229398e-04	2.229398e-04	2.229996e-04	2.230034e-04	2.230034e-04	2.229757e-04	2.229757e-04	
149	1.258334e-09	2.229393e-04	2.229393e-04	2.230228e-04	2.230037e-04	2.230037e-04	2.230140e-04	2.230140e-04	
150	1.268334e-09	2.229398e-04	2.229398e-04	2.229998e-04	2.230035e-04	2.230035e-04	2.229760e-04	2.229760e-04	
151	1.278334e-09	2.229394e-04	2.229394e-04	2.230227e-04	2.230037e-04	2.230037e-04	2.230138e-04	2.230138e-04	
152	1.288334e-09	2.229398e-04	2.229398e-04	2.230000e-04	2.230035e-04	2.230035e-04	2.229764e-04	2.229764e-04	
153	1.298334e-09	2.229394e-04	2.229394e-04	2.230226e-04	2.230038e-04	2.230038e-04	2.230136e-04	2.230136e-04	
154	1.308334e-09	2.229398e-04	2.229398e-04	2.230002e-04	2.230036e-04	2.230036e-04	2.229768e-04	2.229768e-04	
155	1.318334e-09	2.229394e-04	2.229394e-04	2.230225e-04	2.230038e-04	2.230038e-04	2.230134e-04	2.230134e-04	
156	1.328334e-09	2.229398e-04	2.229398e-04	2.230004e-04	2.230036e-04	2.230036e-04	2.229771e-04	2.229771e-04	
157	1.338334e-09	2.229395e-04	2.229395e-04	2.230224e-04	2.230038e-04	2.230038e-04	2.230132e-04	2.230132e-04	
158	1.348334e-09	2.229398e-04	2.229398e-04	2.230006e-04	2.230036e-04	2.230036e-04	2.229775e-04	2.229775e-04	
159	1.358334e-09	2.229395e-04	2.229395e-04	2.230223e-04	2.230038e-04	2.230038e-04	2.230130e-04	2.230130e-04	
160	1.368334e-09	2.229399e-04	2.229399e-04	2.230009e-04	2.230036e-04	2.230036e-04	2.229779e-04	2.229779e-04	
161	1.378334e-09	2.229395e-04	2.229395e-04	2.230222e-04	2.230038e-04	2.230038e-04	2.230128e-04	2.230128e-04	
162	1.388334e-09	2.229399e-04	2.229399e-04	2.230011e-04	2.230037e-04	2.230037e-04	2.229783e-04	2.229783e-04	
163	1.398334e-09	2.229395e-04	2.229395e-04	2.230220e-04	2.230038e-04	2.230038e-04	2.230126e-04	2.230126e-04	
164	1.408334e-09	2.229399e-04	2.229399e-04	2.230013e-04	2.230037e-04	2.230037e-04	2.229787e-04	2.229787e-04	
165	1.418334e-09	2.229395e-04	2.229395e-04	2.230219e-04	2.230038e-04	2.230038e-04	2.230123e-04	2.230123e-04	
166	1.428334e-09	2.229399e-04	2.229399e-04	2.230016e-04	2.230037e-04	2.230037e-04	2.229791e-04	2.229791e-04	
167	1.438334e-09	2.229396e-04	2.229396e-04	2.230218e-04	2.230038e-04	2.230038e-04	2.230121e-04	2.230121e-04	
168	1.448334e-09	2.229399e-04	2.229399e-04	2.230018e-04	2.230037e-04	2.230037e-04	2.229795e-04	2.229795e-04	
169	1.458334e-09	2.229396e-04	2.229396e-04	2.230216e-04	2.230038e-04	2.230038e-04	2.230118e-04	2.230118e-04	
170	1.468334e-09	2.229399e-04	2.229399e-04	2.230020e-04	2.230038e-04	2.230038e-04	2.229798e-04	2.229798e-04	
171	1.478334e-09	2.229396e-04	2.229396e-04	2.230215e-04	2.230038e-04	2.230038e-04	2.230116e-04	2.230116e-04	
172	1.488334e-09	2.229399e-04	2.229399e-04	2.230023e-04	2.230038e-04	2.230038e-04	2.229802e-04	2.229802e-04	
173	1.498334e-09	2.229396e-04	2.229396e-04	2.230214e-04	2.230039e-04	2.230039e-04	2.230114e-04	2.230114e-04	
174	1.508334e-09	2.229399e-04	2.229399e-04	2.230025e-04	2.230038e-04	2.230038e-04	2.229806e-04	2.229806e-04	
175	1.518334e-09	2.229396e-04	2.229396e-04	2.230212e-04	2.230039e-04	2.230039e-04	2.230111e-04	2.230111e-04	
176	1.528334e-09	2.229400e-04	2.229400e-04	2.230028e-04	2.230038e-04	2.230038e-04	2.229810e-04	2.229810e-04	
177	1.538334e-09	2.229397e-04	2.229397e-04	2.230211e-04	2.230039e-04	2.230039e-04	2.230109e-04	2.230109e-04	
178	1.548334e-09	2.229400e-04	2.229400e-04	2.230030e-04	2.230038e-04	2.230038e-04	2.229814e-04	2.229814e-04	
179	1.558334e-09	2.229397e-04	2.229397e-04	2.230209e-04	2.230039e-04	2.230039e-04	2.230106e-04	2.230106e-04	
180	1.568334e-09	2.229400e-04	2.229400e-04	2.230032e-04	2.230039e-04	2.230039e-04	2.229818e-04	2.229818e-04	
181	1.578334e-09	2.229397e-04	2.229397e-04	2.230208e-04	2.230039e-04	2.230039e-04	2.230104e-04	2.230104e-04	
182	1.588334e-09	2.229400e-04	2.229400e-04	2.230035e-04	2.230039e-04	2.230039e-04	2.229821e-04	2.229821e-04	
183	1.598334e-09	2.229397e-04	2.229397e-04	2.230207e-04	2.230039e-04	2.230039e-04	2.230102e-04	2.230102e-04	
184	1.608334e-09	2.229400e-04	2.229400e-04	2.230037e-04	2.230039e-04	2.230039e-04	2.229825e-04	2.229825e-04	
185	1.618334e-09	2.229397e-04	2.229397e-04	2.230205e-04	2.230039e-04	2.230039e-04	2.230099e-04	2.230099e-04	
186	1.628334e-09	2.229400e-04	2.229400e-04	2.230039e-04	2.230039e-04	2.230039e-04	2.229829e-04	2.229829e-04	
187	1.638334e-09	2.229398e-04	2.229398e-04	2.230204e-04	2.230040e-04	2.230040e-04	2.230097e-04	2.230097e-04	
188	1.648334e-09	2.229400e-04	2.229400e-04	2.230042e-04	2.230039e-04	2.230039e-04	2.229833e-04	2.229833e-04	
189	1.658334e-09	2.229398e-04	2.229398e-04	2.230202e-04	2.230040e-04	2.230040e-04	2.230095e-04	2.230095e-04	
190	1.668334e-09	2.229400e-04	2.229400e-04	2.230044e-04	2.230039e-04	2.230039e-04	2.229836e-04	2.229836e-04	
191	1.678334e-09	2.229398e-04	2.229398e-04	2.230201e-04	2.230040e-04	2.230040e-04	2.230092e-04	2.230092e-04	
192	1.688334e-09	2.229400e-04	2.229400e-04	2.230046e-04	2.230040e-04	2.230040e-04	2.229840e-04	2.229840e-04	
193	1.698334e-09	2.229398e-04	2.229398e-04	2.230200e-04	2.230040e-04	2.230040e-04	2.230090e-04	2.230090e-04	
194	1.708334e-09	2.229400e-04	2.229400e-04	2.230048e-04	2.230040e-04	2.230040e-04	2.229843e-04	2.229843e-04	
195	1.718334e-09	2.229398e-04	2.229398e-04	2.230198e-04	2.230040e-04	2.230040e-04	2.230088e-04	2.230088e-04	
196	1.728334e-09	2.229401e-04	2.229401e-04	2.230051e-04	2.230040e-04	2.230040e-04	2.229847e-04	2.229847e-04	
197	1.738334e-09	2.229398e-04	2.229398e-04	2.230197e-04	2.230040e-04	2.230040e-04	2.230086e-04	2.230086e-04	
198	1.748334e-09	2.229401e-04	2.229401e-04	2.230053e-04	2.230040e-04	2.230040e-04	2.229850e-04	2.229850e-04	
199	1.758334e-09	2.229398e-04	2.229398e-04	2.230196e-04	2.230040e-04	2.230040e-04	2.230083e-04	2.230083e-04	
200	1.768334e-09	2.229401e-04	2.229401e-04	2.230055e-04	2.230040e-04	2.230040e-04	2.229854e-04	2.229854e-04	
201	1.778334e-09	2.229399e-04	2.229399e-04	2.230195e-04	2.230040e-04	2.230040e-04	2.230081e-04	2.230081e-04	
202	1.788334e-09	2.229401e-04	2.229401e-04	2.230057e-04	2.230040e-04	2.230040e-04	2.229857e-04	2.229857e-04	
203	1.798334e-09	2.229399e-04	2.229399e-04	2.230193e-04	2.230041e-04	2.230041e-04	2.230079e-04	2.230079e-04	
204	1.808334e-09	2.229401e-04	2.229401e-04	2.230059e-04	2.230041e-04	2.230041e-04	2.229860e-04	2.229860e-04	
205	1.818334e-09	2.229399e-04	2.229399e-04	2.230192e-04	2.230041e-04	2.230041e-04	2.230077e-04	2.230077e-04	
206	1.828334e-09	2.229401e-04	2.229401e-04	2.230061e-04	2.230041e-04	2.230041e-04	2.229863e-04	2.229863e-04	
207	1.838334e-09	2.229399e-04	2.229399e-04	2.230191e-04	2.230041e-04	2.230041e-04	2.230075e-04	2.230075e-04	
208	1.848334e-09	2.229401e-04	2.229401e-04	2.230063e-04	2.230041e-04	2.230041e-04	2.229867e-04	2.229867e-04	
209	1.858334e-09	2.229399e-04	2.229399e-04	2.230190e-04	2.230041e-04	2.230041e-04	2.230073e-04	2.230073e-04	
210	1.868334e-09	2.229401e-04	2.229401e-04	2.230065e-04	2.230041e-04	2.230041e-04	2.229870e-04	2.229870e-04	
211	1.878334e-09	2.229399e-04	2.229399e-04	2.230188e-04	2.230041e-04	2.230041e-04	2.230071e-04	2.230071e-04	
212	1.888334e-09	2.229401e-04	2.229401e-04	2.230067e-04	2.230041e-04	2.230041e-04	2.229873e-04	2.229873e-04	
213	1.898334e-09	2.229399e-04	2.229399e-04	2.230187e-04	2.230041e-04	2.230041e-04	2.230069e-04	2.230069e-04	
214	1.908334e-09	2.229401e-04	2.229401e-04	2.230069e-04	2.230041e-04	2.230041e-04	2.229876e-04	2.229876e-04	
215	1.918334e-09	2.229399e-04	2.229399e-04	2.230186e-04	2.230041e-04	2.230041e-04	2.230067e-04	2.230067e-04	
216	1.928334e-09	2.229401e-04	2.229401e-04	2.230071e-04	2.230041e-04	2.230041e-04	2.229879e-04	2.229879e-04	
217	1.938334e-09	2.229399e-04	2.229399e-04	2.230185e-04	2.230042e-04	2.230042e-04	2.230066e-04	2.230066e-04	
218	1.948334e-09	2.229401e-04	2.229401e-04	2.230073e-04	2.230042e-04	2.230042e-04	2.229882e-04	2.229882e-04	
219	1.958334e-09	2.229400e-04	2.229400e-04	2.230184e-04	2.230042e-04	2.230042e-04	2.230064e-04	2.230064e-04	
220	1.968334e-09	2.229401e-04	2.229401e-04	2.230075e-04	2.230042e-04	2.230042e-04	2.229885e-04	2.229885e-04	
221	1.978334e-09	2.229400e-04	2.229400e-04	2.230183e-04	2.230042e-04	2.230042e-04	2.230062e-04	2.230062e-04	
222	1.988334e-09	2.229401e-04	2.229401e-04	2.230077e-04	2.230042e-04	2.230042e-04	2.229887e-04	2.229887e-04	
223	1.998334e-09	2.229400e-04	2.229400e-04	2.230182e-04	2.230042e-04	2.230042e-04	2.230060e-04	2.230060e-04	
224	2.000000e-09	2.229401e-04	2.229401e-04	2.230084e-04	2.230042e-04	2.230042e-04	2.229899e-04	2.229899e-04	

CPU time since last call: 0.600 seconds.

Total CPU time: 0.600 seconds.

Total DRAM available = 3034.875000 MB.
DRAM currently available = 2326.796875 MB.
Total ngspice program size = 7.458008 MB.
Resident set size = 3.141602 MB.
Shared ngspice pages = 464.000 kB.
Text (code) pages = 1.378906 MB.
Stack = 0 bytes.
Library pages = 5.625000 MB.

