
Circuit: * spice from s1s

Doing analysis at TEMP = 75.000000 and TNOM = 27.000000


Initial Transient Solution
--------------------------

Node                                   Voltage
----                                   -------
n0                                           1
n8                                           1
n9                                           0
n10                                          0
n11                                          1
n12                                          1
n13                                          0
n1                                           0
n14                                          0
n15                                          1
n16                                          0
n17                                          1
n2                                           1
n22                                          1
n23                                          0
n24                                          1
n25                                          0
n5                                           1
n18                                          1
n19                                          0
n20                                          1
n21                                          0
n3                                           0
n4                                           0
n6                                           0
n7                                           0
nseg_node_26                                 1
nseg_node_27                                 1
nseg_node_28                                 1
nseg_node_29                                 1
nseg_node_30                                 1
nseg_node_31                                 1
nseg_node_32                                 1
nseg_node_33                                 1
nseg_node_34                                 1
nseg_node_35                                 1
nseg_node_36                                 1
nseg_node_37                                 1
nseg_node_38                                 1
nseg_node_39                                 1
nseg_node_40                                 1
nseg_node_41                                 1
nseg_node_42                                 1
nseg_node_43                                 1
nseg_node_44                                 1
gin                                          0
vdd                                          1
vdt#branch                                   0
vdd#branch                        -1.84774e-05


No. of Data Rows : 218

                                                                                                                * spice from s1s
                                                                                                                Transient Analysis  Sat Feb  7 10:35:13  2009
------------------------------------------------------------------------------------------------------------------------------------------------------------------------------------------------------------------------------------------------
Index   time            v(gin)          v(n8)           v(n10)          v(n12)          v(n14)          v(n22)          v(n24)          v(n16)          v(n18)          v(n20)          v(n3)           v(n4)           v(n6)           
------------------------------------------------------------------------------------------------------------------------------------------------------------------------------------------------------------------------------------------------
0	0.000000e+00	0.000000e+00	1.000000e+00	0.000000e+00	1.000000e+00	0.000000e+00	1.000000e+00	1.000000e+00	0.000000e+00	1.000000e+00	1.000000e+00	0.000000e+00	0.000000e+00	0.000000e+00	
1	1.000000e-13	0.000000e+00	1.001010e+00	5.616552e-02	1.000869e+00	1.664167e-03	1.002321e+00	1.002321e+00	1.661968e-03	1.002032e+00	1.002031e+00	3.267373e-02	3.267373e-02	3.266591e-02	
2	1.886509e-13	0.000000e+00	1.002378e+00	9.944053e-02	1.002050e+00	4.141080e-03	1.004826e+00	1.004826e+00	4.135427e-03	1.004441e+00	1.004441e+00	6.002588e-02	6.002588e-02	6.001191e-02	
3	3.659528e-13	0.000000e+00	1.005641e+00	1.750943e-01	1.004877e+00	1.061451e-02	1.010169e+00	1.010169e+00	1.059930e-02	1.009572e+00	1.009572e+00	1.116521e-01	1.116521e-01	1.116273e-01	
4	7.205565e-13	0.000000e+00	1.012852e+00	2.784307e-01	1.011136e+00	2.886829e-02	1.020539e+00	1.020539e+00	2.882229e-02	1.018704e+00	1.018704e+00	1.981516e-01	1.981516e-01	1.981117e-01	
5	1.429764e-12	0.000000e+00	1.021671e+00	3.858215e-01	1.018539e+00	6.786465e-02	1.032675e+00	1.032675e+00	6.774936e-02	1.028391e+00	1.028390e+00	3.188616e-01	3.188616e-01	3.188067e-01	
6	2.109532e-12	0.000000e+00	1.022703e+00	4.272259e-01	1.018712e+00	9.837683e-02	1.034610e+00	1.034610e+00	9.822231e-02	1.030275e+00	1.030275e+00	3.864717e-01	3.864717e-01	3.864159e-01	
7	3.174994e-12	0.000000e+00	1.018475e+00	4.487409e-01	1.013125e+00	1.291848e-01	1.030304e+00	1.030304e+00	1.290415e-01	1.027332e+00	1.027332e+00	4.377304e-01	4.377304e-01	4.377012e-01	
8	4.290706e-12	0.000000e+00	1.013010e+00	4.461017e-01	1.005726e+00	1.453841e-01	1.023986e+00	1.023986e+00	1.452989e-01	1.022318e+00	1.022318e+00	4.503469e-01	4.503469e-01	4.503713e-01	
9	6.388900e-12	0.000000e+00	1.006192e+00	4.183677e-01	9.932066e-01	1.534846e-01	1.015178e+00	1.015178e+00	1.534926e-01	1.014865e+00	1.014865e+00	4.298034e-01	4.298034e-01	4.299227e-01	
10	8.369540e-12	0.000000e+00	1.003084e+00	3.813748e-01	9.831168e-01	1.481553e-01	1.010273e+00	1.010273e+00	1.481986e-01	1.010488e+00	1.010488e+00	3.906023e-01	3.906023e-01	3.907734e-01	
11	1.142748e-11	0.000000e+00	1.000764e+00	3.231775e-01	9.715839e-01	1.333714e-01	1.005557e+00	1.005557e+00	1.334150e-01	1.006095e+00	1.006095e+00	3.284946e-01	3.284946e-01	3.286888e-01	
12	1.458332e-11	0.000000e+00	9.994803e-01	2.681986e-01	9.654351e-01	1.166233e-01	1.002176e+00	1.002176e+00	1.166536e-01	1.002840e+00	1.002840e+00	2.713815e-01	2.713815e-01	2.715629e-01	
13	2.007976e-11	0.000000e+00	9.981404e-01	1.905966e-01	9.646888e-01	9.105048e-02	9.981387e-01	9.981387e-01	9.106300e-02	9.988337e-01	9.988337e-01	1.926454e-01	1.926454e-01	1.927844e-01	
14	2.690530e-11	0.000000e+00	9.974881e-01	1.230807e-01	9.711378e-01	6.662842e-02	9.955949e-01	9.955949e-01	6.663452e-02	9.961903e-01	9.961903e-01	1.246361e-01	1.246361e-01	1.247285e-01	
15	3.690530e-11	0.000000e+00	9.975795e-01	6.357525e-02	9.812470e-01	4.203371e-02	9.947512e-01	9.947512e-01	4.203501e-02	9.951098e-01	9.951098e-01	6.451760e-02	6.451760e-02	6.456620e-02	
16	4.690530e-11	0.000000e+00	9.981280e-01	3.265412e-02	9.884488e-01	2.652109e-02	9.954523e-01	9.954523e-01	2.651974e-02	9.956089e-01	9.956089e-01	3.318894e-02	3.318894e-02	3.321364e-02	
17	5.690530e-11	0.000000e+00	9.986785e-01	1.676167e-02	9.930496e-01	1.673781e-02	9.965125e-01	9.965125e-01	1.673771e-02	9.965319e-01	9.965319e-01	1.704311e-02	1.704311e-02	1.705555e-02	
18	6.690530e-11	0.000000e+00	9.991084e-01	8.611978e-03	9.958587e-01	1.057622e-02	9.974852e-01	9.974852e-01	1.057557e-02	9.974386e-01	9.974386e-01	8.762244e-03	8.762244e-03	8.768587e-03	
19	7.690530e-11	0.000000e+00	9.994076e-01	4.458460e-03	9.975399e-01	6.694339e-03	9.982502e-01	9.982502e-01	6.694841e-03	9.981721e-01	9.981721e-01	4.525386e-03	4.525386e-03	4.528832e-03	
20	8.690530e-11	0.000000e+00	9.996030e-01	2.320644e-03	9.985314e-01	4.250704e-03	9.988003e-01	9.988003e-01	4.250680e-03	9.987232e-01	9.987232e-01	2.358854e-03	2.358854e-03	2.360942e-03	
21	9.690530e-11	0.000000e+00	9.997263e-01	1.241541e-03	9.991106e-01	2.711036e-03	9.991844e-01	9.991844e-01	2.711670e-03	9.991118e-01	9.991118e-01	1.251590e-03	1.251590e-03	1.253030e-03	
22	1.069053e-10	0.000000e+00	9.998011e-01	6.754975e-04	9.994476e-01	1.742282e-03	9.994379e-01	9.994379e-01	1.742386e-03	9.993820e-01	9.993820e-01	6.853560e-04	6.853560e-04	6.864450e-04	
23	1.169053e-10	0.000000e+00	9.998465e-01	3.978282e-04	9.996420e-01	1.131427e-03	9.996088e-01	9.996088e-01	1.131930e-03	9.995618e-01	9.995618e-01	3.949463e-04	3.949463e-04	3.958127e-04	
24	1.269053e-10	0.000000e+00	9.998728e-01	2.432359e-04	9.997553e-01	7.473085e-04	9.997156e-01	9.997156e-01	7.473675e-04	9.996838e-01	9.996838e-01	2.461129e-04	2.461129e-04	2.468063e-04	
25	1.369053e-10	0.000000e+00	9.998885e-01	1.745096e-04	9.998197e-01	5.048284e-04	9.997879e-01	9.997879e-01	5.051682e-04	9.997615e-01	9.997615e-01	1.692624e-04	1.692624e-04	1.698137e-04	
26	1.469053e-10	0.000000e+00	9.998975e-01	1.291164e-04	9.998579e-01	3.525690e-04	9.998303e-01	9.998303e-01	3.525691e-04	9.998147e-01	9.998147e-01	1.298871e-04	1.298871e-04	1.303155e-04	
27	1.569053e-10	0.000000e+00	9.999025e-01	1.145616e-04	9.998788e-01	2.562678e-04	9.998607e-01	9.998607e-01	2.564871e-04	9.998465e-01	9.998465e-01	1.092190e-04	1.092190e-04	1.095465e-04	
28	1.669053e-10	0.000000e+00	9.999056e-01	9.901982e-05	9.998921e-01	1.959699e-04	9.998765e-01	9.998765e-01	1.959356e-04	9.998698e-01	9.998698e-01	9.877946e-05	9.877946e-05	9.902379e-05	
29	1.769053e-10	0.000000e+00	9.999071e-01	9.803692e-05	9.998986e-01	1.576928e-04	9.998896e-01	9.998896e-01	1.578354e-04	9.998820e-01	9.998820e-01	9.302436e-05	9.302436e-05	9.320423e-05	
30	1.869053e-10	0.000000e+00	9.999083e-01	9.125058e-05	9.999036e-01	1.338558e-04	9.998948e-01	9.998948e-01	1.338089e-04	9.998926e-01	9.998926e-01	9.032193e-05	9.032193e-05	9.045153e-05	
31	1.969053e-10	0.000000e+00	9.999085e-01	9.321206e-05	9.999052e-01	1.186164e-04	9.999009e-01	9.999009e-01	1.187124e-04	9.998965e-01	9.998965e-01	8.857549e-05	8.857549e-05	8.866805e-05	
32	2.000000e-10	0.000000e+00	9.999090e-01	9.031981e-05	9.999066e-01	1.153436e-04	9.999003e-01	9.999003e-01	1.153170e-04	9.998996e-01	9.998996e-01	8.848940e-05	8.848940e-05	8.857246e-05	
33	2.010000e-10	8.000000e-03	9.999569e-01	9.121807e-05	9.999063e-01	1.143458e-04	9.999013e-01	9.999013e-01	1.143551e-04	9.998991e-01	9.998991e-01	8.830307e-05	8.830307e-05	8.838328e-05	
34	2.030000e-10	2.400000e-02	1.000131e+00	9.295432e-05	9.999066e-01	1.124760e-04	9.999019e-01	9.999019e-01	1.125012e-04	9.998998e-01	9.998998e-01	8.814501e-05	8.814501e-05	8.821985e-05	
35	2.070000e-10	5.600000e-02	1.000695e+00	9.924283e-05	9.999072e-01	1.092430e-04	9.999028e-01	9.999028e-01	1.092550e-04	9.999010e-01	9.999010e-01	8.789665e-05	8.789665e-05	8.796165e-05	
36	2.150000e-10	1.200000e-01	1.001667e+00	1.115705e-04	9.999081e-01	1.042507e-04	9.999043e-01	9.999043e-01	1.042669e-04	9.999030e-01	9.999030e-01	8.753259e-05	8.753259e-05	8.758130e-05	
37	2.250000e-10	2.000000e-01	1.001545e+00	1.035858e-04	9.999086e-01	1.001025e-04	9.999054e-01	9.999054e-01	1.001075e-04	9.999046e-01	9.999046e-01	8.727867e-05	8.727867e-05	8.731233e-05	
38	2.350000e-10	2.800000e-01	9.979017e-01	5.378640e-05	9.999080e-01	9.747399e-05	9.999062e-01	9.999062e-01	9.748290e-05	9.999056e-01	9.999056e-01	8.713018e-05	8.713018e-05	8.715321e-05	
39	2.450000e-10	3.600000e-01	9.857322e-01	-8.006092e-05	9.999063e-01	9.581773e-05	9.999066e-01	9.999066e-01	9.581911e-05	9.999063e-01	9.999063e-01	8.705886e-05	8.705886e-05	8.707452e-05	
40	2.550000e-10	4.400000e-01	9.570643e-01	-3.547832e-04	9.999029e-01	9.475310e-05	9.999069e-01	9.999069e-01	9.475846e-05	9.999067e-01	9.999067e-01	8.700926e-05	8.700926e-05	8.701981e-05	
41	2.650000e-10	5.200000e-01	9.008944e-01	-7.792180e-04	9.998982e-01	9.407369e-05	9.999071e-01	9.999071e-01	9.407373e-05	9.999070e-01	9.999070e-01	8.699147e-05	8.699147e-05	8.699857e-05	
42	2.750000e-10	6.000000e-01	8.040909e-01	-7.632531e-04	9.999003e-01	9.368259e-05	9.999072e-01	9.999072e-01	9.368614e-05	9.999071e-01	9.999071e-01	8.697151e-05	8.697151e-05	8.697622e-05	
43	2.850000e-10	6.800000e-01	6.628751e-01	5.303862e-03	9.999851e-01	9.402424e-05	9.999073e-01	9.999073e-01	9.402373e-05	9.999072e-01	9.999072e-01	8.697000e-05	8.697000e-05	8.697314e-05	
44	2.950000e-10	7.600000e-01	4.885865e-01	4.026810e-02	1.000465e+00	9.728386e-05	9.999074e-01	9.999074e-01	9.728560e-05	9.999073e-01	9.999073e-01	8.695974e-05	8.695974e-05	8.696176e-05	
45	3.050000e-10	8.400000e-01	3.160483e-01	1.486558e-01	1.001736e+00	1.066921e-04	9.999075e-01	9.999075e-01	1.066896e-04	9.999075e-01	9.999075e-01	8.696431e-05	8.696431e-05	8.696556e-05	
46	3.150000e-10	9.200000e-01	1.864117e-01	3.384048e-01	9.975458e-01	8.116083e-05	9.999073e-01	9.999073e-01	8.117048e-05	9.999073e-01	9.999073e-01	8.695403e-05	8.695403e-05	8.695524e-05	
47	3.250000e-10	1.000000e+00	1.065552e-01	5.475069e-01	9.534081e-01	-2.291146e-04	9.999037e-01	9.999037e-01	-2.290352e-04	9.999041e-01	9.999041e-01	8.692239e-05	8.692239e-05	8.692725e-05	
48	3.260000e-10	1.000000e+00	1.008716e-01	5.668447e-01	9.444058e-01	-2.936535e-04	9.999030e-01	9.999030e-01	-2.935596e-04	9.999035e-01	9.999035e-01	8.691174e-05	8.691174e-05	8.691736e-05	
49	3.280000e-10	1.000000e+00	9.002038e-02	6.043068e-01	9.239303e-01	-4.414850e-04	9.999013e-01	9.999013e-01	-4.413605e-04	9.999019e-01	9.999019e-01	8.689343e-05	8.689343e-05	8.690079e-05	
50	3.320000e-10	1.000000e+00	7.141809e-02	6.715419e-01	8.684604e-01	-8.369371e-04	9.998964e-01	9.998964e-01	-8.367496e-04	9.998974e-01	9.998974e-01	8.684180e-05	8.684180e-05	8.685359e-05	
51	3.400000e-10	1.000000e+00	4.453487e-02	7.778813e-01	7.127409e-01	-5.527417e-04	9.998966e-01	9.998966e-01	-5.528809e-04	9.998966e-01	9.998966e-01	8.683552e-05	8.683552e-05	8.683671e-05	
52	3.500000e-10	1.000000e+00	2.468560e-02	8.669929e-01	4.848185e-01	1.770786e-02	1.000105e+00	1.000105e+00	1.770298e-02	1.000081e+00	1.000081e+00	8.898597e-05	8.898597e-05	8.873429e-05	
53	3.600000e-10	1.000000e+00	1.385260e-02	9.222601e-01	2.886163e-01	9.363785e-02	1.000990e+00	1.000990e+00	9.361924e-02	1.000888e+00	1.000888e+00	9.812607e-05	9.812607e-05	9.706728e-05	
54	3.700000e-10	1.000000e+00	7.825922e-03	9.554674e-01	1.627903e-01	2.432984e-01	1.001441e+00	1.001441e+00	2.432672e-01	1.001389e+00	1.001389e+00	1.022181e-04	1.022181e-04	1.017507e-04	
55	3.800000e-10	1.000000e+00	4.463949e-03	9.742994e-01	9.178665e-02	4.218796e-01	9.886418e-01	9.886418e-01	4.218616e-01	9.901459e-01	9.901459e-01	-3.346461e-05	-3.346461e-05	-1.747313e-05	
56	3.900000e-10	1.000000e+00	2.555572e-03	9.854646e-01	5.120422e-02	5.803699e-01	9.302976e-01	9.302976e-01	5.804279e-01	9.373733e-01	9.373732e-01	-6.256853e-04	-6.256853e-04	-5.564895e-04	
57	4.000000e-10	1.000000e+00	1.490480e-03	9.916200e-01	2.894693e-02	7.008499e-01	8.027576e-01	8.027576e-01	7.010336e-01	8.193462e-01	8.193461e-01	-1.214650e-03	-1.214650e-03	-1.245946e-03	
58	4.100000e-10	1.000000e+00	8.790666e-04	9.952703e-01	1.656843e-02	7.876134e-01	6.236860e-01	6.236860e-01	7.877780e-01	6.497639e-01	6.497638e-01	6.737469e-03	6.737469e-03	4.556189e-03	
59	4.200000e-10	1.000000e+00	5.397386e-04	9.972588e-01	9.876482e-03	8.508735e-01	4.378868e-01	4.378868e-01	8.508203e-01	4.689416e-01	4.689415e-01	5.582738e-02	5.582738e-02	4.329243e-02	
60	4.300000e-10	1.000000e+00	3.424958e-04	9.984261e-01	6.017278e-03	8.972698e-01	2.873536e-01	2.873536e-01	8.971458e-01	3.167870e-01	3.167869e-01	1.844493e-01	1.844493e-01	1.550418e-01	
61	4.400000e-10	1.000000e+00	2.345211e-04	9.990689e-01	3.864964e-03	9.302940e-01	1.862012e-01	1.862012e-01	9.302402e-01	2.103807e-01	2.103806e-01	3.814652e-01	3.814652e-01	3.406851e-01	
62	4.500000e-10	1.000000e+00	1.704089e-04	9.994292e-01	2.481452e-03	9.527267e-01	1.205204e-01	1.205204e-01	9.526560e-01	1.399014e-01	1.399014e-01	5.864434e-01	5.864434e-01	5.464663e-01	
63	4.600000e-10	1.000000e+00	1.364221e-04	9.996440e-01	1.670527e-03	9.682095e-01	7.632746e-02	7.632746e-02	9.681611e-01	9.143578e-02	9.143575e-02	7.478314e-01	7.478314e-01	7.178381e-01	
64	4.700000e-10	1.000000e+00	1.153258e-04	9.997472e-01	1.105559e-03	9.785152e-01	4.822454e-02	4.822454e-02	9.784635e-01	5.914203e-02	5.914201e-02	8.534630e-01	8.534630e-01	8.344110e-01	
65	4.800000e-10	1.000000e+00	1.049308e-04	9.998269e-01	7.783018e-04	9.856196e-01	3.027469e-02	3.027469e-02	9.855804e-01	3.810329e-02	3.810327e-02	9.165627e-01	9.165627e-01	9.051579e-01	
66	4.900000e-10	1.000000e+00	9.779013e-05	9.998500e-01	5.322316e-04	9.902988e-01	1.890811e-02	1.890811e-02	9.902714e-01	2.435466e-02	2.435465e-02	9.530397e-01	9.530397e-01	9.464211e-01	
67	5.000000e-10	1.000000e+00	9.482079e-05	9.998856e-01	3.962496e-04	9.935253e-01	1.170609e-02	1.170609e-02	9.935032e-01	1.544810e-02	1.544809e-02	9.737026e-01	9.737026e-01	9.699137e-01	
68	5.100000e-10	1.000000e+00	9.223995e-05	9.998846e-01	2.844805e-04	9.956233e-01	7.209463e-03	7.209463e-03	9.956102e-01	9.735469e-03	9.735466e-03	9.853070e-01	9.853070e-01	9.831602e-01	
69	5.200000e-10	1.000000e+00	9.155445e-05	9.999043e-01	2.276183e-04	9.970797e-01	4.434681e-03	4.434681e-03	9.970679e-01	6.109072e-03	6.109070e-03	9.917819e-01	9.917819e-01	9.905625e-01	
70	5.300000e-10	1.000000e+00	9.049596e-05	9.998972e-01	1.755718e-04	9.980107e-01	2.711104e-03	2.711104e-03	9.980055e-01	3.821918e-03	3.821917e-03	9.953930e-01	9.953930e-01	9.947078e-01	
71	5.400000e-10	1.000000e+00	9.048049e-05	9.999100e-01	1.521516e-04	9.986654e-01	1.685031e-03	1.685031e-03	9.986591e-01	2.398394e-03	2.398393e-03	9.973959e-01	9.973959e-01	9.970037e-01	
72	5.500000e-10	1.000000e+00	8.995606e-05	9.999023e-01	1.274189e-04	9.990732e-01	1.034999e-03	1.034999e-03	9.990718e-01	1.506480e-03	1.506479e-03	9.985127e-01	9.985127e-01	9.982933e-01	
73	5.600000e-10	1.000000e+00	9.011364e-05	9.999115e-01	1.181623e-04	9.993668e-01	6.721733e-04	6.721733e-04	9.993632e-01	9.646814e-04	9.646811e-04	9.991302e-01	9.991302e-01	9.990019e-01	
74	5.700000e-10	1.000000e+00	8.979588e-05	9.999048e-01	1.061517e-04	9.995424e-01	4.244222e-04	4.244222e-04	9.995426e-01	6.203343e-04	6.203342e-04	9.994769e-01	9.994769e-01	9.994058e-01	
75	5.800000e-10	1.000000e+00	8.997862e-05	9.999116e-01	1.028176e-04	9.996743e-01	3.048491e-04	3.048491e-04	9.996721e-01	4.206727e-04	4.206726e-04	9.996675e-01	9.996675e-01	9.996245e-01	
76	5.900000e-10	1.000000e+00	8.975481e-05	9.999061e-01	9.682085e-05	9.997482e-01	2.057676e-04	2.057676e-04	9.997489e-01	2.864466e-04	2.864466e-04	9.997758e-01	9.997758e-01	9.997525e-01	
77	6.000000e-10	1.000000e+00	8.992207e-05	9.999112e-01	9.588768e-05	9.998080e-01	1.726424e-04	1.726424e-04	9.998065e-01	2.167800e-04	2.167799e-04	9.998346e-01	9.998346e-01	9.998198e-01	
78	6.100000e-10	1.000000e+00	8.975045e-05	9.999070e-01	9.277325e-05	9.998379e-01	1.287415e-04	1.287415e-04	9.998388e-01	1.620863e-04	1.620863e-04	9.998687e-01	9.998687e-01	9.998610e-01	
79	6.200000e-10	1.000000e+00	8.989364e-05	9.999108e-01	9.275607e-05	9.998656e-01	1.249388e-04	1.249388e-04	9.998645e-01	1.409313e-04	1.409312e-04	9.998868e-01	9.998868e-01	9.998816e-01	
80	6.300000e-10	1.000000e+00	8.975670e-05	9.999075e-01	9.104589e-05	9.998769e-01	1.022218e-04	1.022218e-04	9.998777e-01	1.162174e-04	1.162175e-04	9.998977e-01	9.998977e-01	9.998952e-01	
81	6.400000e-10	1.000000e+00	8.987635e-05	9.999105e-01	9.133665e-05	9.998902e-01	1.073960e-04	1.073960e-04	9.998893e-01	1.127775e-04	1.127775e-04	9.999033e-01	9.999033e-01	9.999013e-01	
82	6.500000e-10	1.000000e+00	8.976531e-05	9.999080e-01	9.032584e-05	9.998938e-01	9.350049e-05	9.350049e-05	9.998945e-01	9.948912e-05	9.948913e-05	9.999068e-01	9.999068e-01	9.999060e-01	
83	6.600000e-10	1.000000e+00	8.986418e-05	9.999102e-01	9.068824e-05	9.999006e-01	1.006265e-04	1.006265e-04	9.998999e-01	1.022643e-04	1.022643e-04	9.999085e-01	9.999085e-01	9.999077e-01	
84	6.700000e-10	1.000000e+00	8.977371e-05	9.999083e-01	9.003654e-05	9.999012e-01	9.095541e-05	9.095541e-05	9.999017e-01	9.350759e-05	9.350760e-05	9.999096e-01	9.999096e-01	9.999094e-01	
85	6.800000e-10	1.000000e+00	8.985484e-05	9.999099e-01	9.038739e-05	9.999049e-01	9.775605e-05	9.775605e-05	9.999044e-01	9.825098e-05	9.825097e-05	9.999101e-01	9.999101e-01	9.999098e-01	
86	6.900000e-10	1.000000e+00	8.978117e-05	9.999085e-01	8.992777e-05	9.999044e-01	9.049104e-05	9.049104e-05	9.999049e-01	9.146634e-05	9.146634e-05	9.999105e-01	9.999105e-01	9.999104e-01	
87	7.000000e-10	1.000000e+00	8.984737e-05	9.999097e-01	9.024395e-05	9.999067e-01	9.634834e-05	9.634834e-05	9.999063e-01	9.663314e-05	9.663313e-05	9.999107e-01	9.999107e-01	9.999105e-01	
88	7.100000e-10	1.000000e+00	8.978755e-05	9.999087e-01	8.989255e-05	9.999059e-01	9.067831e-05	9.067831e-05	9.999062e-01	9.085890e-05	9.085890e-05	9.999108e-01	9.999108e-01	9.999108e-01	
89	7.200000e-10	1.000000e+00	8.984128e-05	9.999096e-01	9.017252e-05	9.999073e-01	9.553199e-05	9.553199e-05	9.999070e-01	9.590452e-05	9.590451e-05	9.999108e-01	9.999108e-01	9.999108e-01	
90	7.300000e-10	1.000000e+00	8.979291e-05	9.999088e-01	8.988594e-05	9.999065e-01	9.102756e-05	9.102756e-05	9.999068e-01	9.076539e-05	9.076539e-05	9.999109e-01	9.999109e-01	9.999109e-01	
91	7.400000e-10	1.000000e+00	8.983628e-05	9.999095e-01	9.013463e-05	9.999076e-01	9.498722e-05	9.498722e-05	9.999073e-01	9.551302e-05	9.551301e-05	9.999109e-01	9.999109e-01	9.999109e-01	
92	7.500000e-10	1.000000e+00	8.979737e-05	9.999089e-01	8.988956e-05	9.999069e-01	9.137836e-05	9.137836e-05	9.999071e-01	9.084927e-05	9.084927e-05	9.999109e-01	9.999109e-01	9.999109e-01	
93	7.600000e-10	1.000000e+00	8.983219e-05	9.999094e-01	9.011280e-05	9.999077e-01	9.458968e-05	9.458968e-05	9.999075e-01	9.525584e-05	9.525584e-05	9.999109e-01	9.999109e-01	9.999109e-01	
94	7.700000e-10	1.000000e+00	8.980105e-05	9.999090e-01	8.989617e-05	9.999070e-01	9.168442e-05	9.168442e-05	9.999072e-01	9.098806e-05	9.098805e-05	9.999109e-01	9.999109e-01	9.999109e-01	
95	7.800000e-10	1.000000e+00	8.982884e-05	9.999093e-01	9.009901e-05	9.999077e-01	9.428562e-05	9.428562e-05	9.999075e-01	9.505785e-05	9.505785e-05	9.999109e-01	9.999109e-01	9.999109e-01	
96	7.900000e-10	1.000000e+00	8.980407e-05	9.999090e-01	8.990306e-05	9.999071e-01	9.193804e-05	9.193804e-05	9.999073e-01	9.113771e-05	9.113770e-05	9.999109e-01	9.999109e-01	9.999109e-01	
97	8.000000e-10	1.000000e+00	8.982611e-05	9.999093e-01	9.008944e-05	9.999076e-01	9.404787e-05	9.404787e-05	9.999075e-01	9.489058e-05	9.489058e-05	9.999109e-01	9.999109e-01	9.999109e-01	
98	8.100000e-10	1.000000e+00	8.980653e-05	9.999091e-01	8.990938e-05	9.999072e-01	9.214364e-05	9.214364e-05	9.999073e-01	9.128294e-05	9.128293e-05	9.999109e-01	9.999109e-01	9.999109e-01	
99	8.200000e-10	1.000000e+00	8.982389e-05	9.999093e-01	9.008228e-05	9.999076e-01	9.386016e-05	9.386016e-05	9.999075e-01	9.474268e-05	9.474268e-05	9.999109e-01	9.999109e-01	9.999109e-01	
100	8.300000e-10	1.000000e+00	8.980852e-05	9.999091e-01	8.991494e-05	9.999072e-01	9.230865e-05	9.230865e-05	9.999073e-01	9.141892e-05	9.141891e-05	9.999109e-01	9.999109e-01	9.999109e-01	
101	8.400000e-10	1.000000e+00	8.982209e-05	9.999092e-01	9.007657e-05	9.999076e-01	9.371138e-05	9.371138e-05	9.999075e-01	9.460920e-05	9.460920e-05	9.999109e-01	9.999109e-01	9.999109e-01	
102	8.500000e-10	1.000000e+00	8.981013e-05	9.999091e-01	8.991978e-05	9.999072e-01	9.244042e-05	9.244042e-05	9.999073e-01	9.154463e-05	9.154462e-05	9.999109e-01	9.999109e-01	9.999109e-01	
103	8.600000e-10	1.000000e+00	8.982064e-05	9.999092e-01	9.007183e-05	9.999076e-01	9.359327e-05	9.359327e-05	9.999075e-01	9.448759e-05	9.448759e-05	9.999109e-01	9.999109e-01	9.999109e-01	
104	8.700000e-10	1.000000e+00	8.981143e-05	9.999091e-01	8.992402e-05	9.999073e-01	9.254538e-05	9.254538e-05	9.999073e-01	9.166034e-05	9.166033e-05	9.999109e-01	9.999109e-01	9.999109e-01	
105	8.800000e-10	1.000000e+00	8.981948e-05	9.999092e-01	9.006777e-05	9.999075e-01	9.349947e-05	9.349947e-05	9.999075e-01	9.437628e-05	9.437628e-05	9.999109e-01	9.999109e-01	9.999109e-01	
106	8.900000e-10	1.000000e+00	8.981247e-05	9.999091e-01	8.992775e-05	9.999073e-01	9.262886e-05	9.262886e-05	9.999073e-01	9.176674e-05	9.176672e-05	9.999109e-01	9.999109e-01	9.999109e-01	
107	9.000000e-10	1.000000e+00	8.981855e-05	9.999092e-01	9.006422e-05	9.999075e-01	9.342498e-05	9.342498e-05	9.999075e-01	9.427413e-05	9.427414e-05	9.999109e-01	9.999109e-01	9.999109e-01	
108	9.100000e-10	1.000000e+00	8.981330e-05	9.999091e-01	8.993108e-05	9.999073e-01	9.269522e-05	9.269522e-05	9.999073e-01	9.186458e-05	9.186457e-05	9.999109e-01	9.999109e-01	9.999109e-01	
109	9.200000e-10	1.000000e+00	8.981781e-05	9.999092e-01	9.006106e-05	9.999075e-01	9.336582e-05	9.336582e-05	9.999075e-01	9.418025e-05	9.418025e-05	9.999109e-01	9.999109e-01	9.999109e-01	
110	9.300000e-10	1.000000e+00	8.981396e-05	9.999091e-01	8.993406e-05	9.999073e-01	9.274792e-05	9.274792e-05	9.999073e-01	9.195462e-05	9.195461e-05	9.999109e-01	9.999109e-01	9.999109e-01	
111	9.400000e-10	1.000000e+00	8.981722e-05	9.999092e-01	9.005822e-05	9.999075e-01	9.331886e-05	9.331886e-05	9.999075e-01	9.409385e-05	9.409385e-05	9.999109e-01	9.999109e-01	9.999109e-01	
112	9.500000e-10	1.000000e+00	8.981448e-05	9.999091e-01	8.993677e-05	9.999073e-01	9.278978e-05	9.278978e-05	9.999073e-01	9.203755e-05	9.203753e-05	9.999109e-01	9.999109e-01	9.999109e-01	
113	9.600000e-10	1.000000e+00	8.981676e-05	9.999092e-01	9.005564e-05	9.999075e-01	9.328158e-05	9.328158e-05	9.999075e-01	9.401426e-05	9.401427e-05	9.999109e-01	9.999109e-01	9.999109e-01	
114	9.700000e-10	1.000000e+00	8.981490e-05	9.999092e-01	8.993924e-05	9.999073e-01	9.282301e-05	9.282301e-05	9.999073e-01	9.211396e-05	9.211395e-05	9.999109e-01	9.999109e-01	9.999109e-01	
115	9.800000e-10	1.000000e+00	8.981639e-05	9.999092e-01	9.005328e-05	9.999075e-01	9.325199e-05	9.325199e-05	9.999075e-01	9.394091e-05	9.394091e-05	9.999109e-01	9.999109e-01	9.999109e-01	
116	9.900000e-10	1.000000e+00	8.981522e-05	9.999092e-01	8.994151e-05	9.999073e-01	9.284938e-05	9.284938e-05	9.999073e-01	9.218442e-05	9.218441e-05	9.999109e-01	9.999109e-01	9.999109e-01	
117	1.000000e-09	1.000000e+00	8.981611e-05	9.999092e-01	9.005111e-05	9.999075e-01	9.322851e-05	9.322851e-05	9.999075e-01	9.387325e-05	9.387326e-05	9.999109e-01	9.999109e-01	9.999109e-01	
118	1.010000e-09	1.000000e+00	8.981547e-05	9.999092e-01	8.994360e-05	9.999073e-01	9.287031e-05	9.287031e-05	9.999074e-01	9.224943e-05	9.224941e-05	9.999109e-01	9.999109e-01	9.999109e-01	
119	1.020000e-09	1.000000e+00	8.981589e-05	9.999092e-01	9.004910e-05	9.999075e-01	9.320989e-05	9.320989e-05	9.999075e-01	9.381082e-05	9.381083e-05	9.999109e-01	9.999109e-01	9.999109e-01	
120	1.030000e-09	1.000000e+00	8.981566e-05	9.999092e-01	8.994554e-05	9.999073e-01	9.288692e-05	9.288692e-05	9.999074e-01	9.230942e-05	9.230941e-05	9.999109e-01	9.999109e-01	9.999109e-01	
121	1.040000e-09	1.000000e+00	8.981572e-05	9.999092e-01	9.004723e-05	9.999075e-01	9.319512e-05	9.319512e-05	9.999075e-01	9.375319e-05	9.375320e-05	9.999109e-01	9.999109e-01	9.999109e-01	
122	1.050000e-09	1.000000e+00	8.981581e-05	9.999092e-01	8.994735e-05	9.999073e-01	9.290009e-05	9.290009e-05	9.999074e-01	9.236481e-05	9.236480e-05	9.999109e-01	9.999109e-01	9.999109e-01	
123	1.060000e-09	1.000000e+00	8.981559e-05	9.999092e-01	9.004549e-05	9.999075e-01	9.318341e-05	9.318341e-05	9.999075e-01	9.369998e-05	9.369999e-05	9.999109e-01	9.999109e-01	9.999109e-01	
124	1.070000e-09	1.000000e+00	8.981592e-05	9.999092e-01	8.994904e-05	9.999073e-01	9.291053e-05	9.291053e-05	9.999074e-01	9.241597e-05	9.241596e-05	9.999109e-01	9.999109e-01	9.999109e-01	
125	1.080000e-09	1.000000e+00	8.981549e-05	9.999092e-01	9.004385e-05	9.999075e-01	9.317413e-05	9.317413e-05	9.999075e-01	9.365083e-05	9.365084e-05	9.999109e-01	9.999109e-01	9.999109e-01	
126	1.090000e-09	1.000000e+00	8.981601e-05	9.999092e-01	8.995063e-05	9.999074e-01	9.291881e-05	9.291881e-05	9.999074e-01	9.246323e-05	9.246321e-05	9.999109e-01	9.999109e-01	9.999109e-01	
127	1.100000e-09	1.000000e+00	8.981542e-05	9.999092e-01	9.004232e-05	9.999075e-01	9.316678e-05	9.316678e-05	9.999075e-01	9.360543e-05	9.360544e-05	9.999109e-01	9.999109e-01	9.999109e-01	
128	1.110000e-09	1.000000e+00	8.981607e-05	9.999092e-01	8.995212e-05	9.999074e-01	9.292537e-05	9.292537e-05	9.999074e-01	9.250688e-05	9.250687e-05	9.999109e-01	9.999109e-01	9.999109e-01	
129	1.120000e-09	1.000000e+00	8.981537e-05	9.999092e-01	9.004088e-05	9.999075e-01	9.316096e-05	9.316096e-05	9.999075e-01	9.356348e-05	9.356348e-05	9.999109e-01	9.999109e-01	9.999109e-01	
130	1.130000e-09	1.000000e+00	8.981611e-05	9.999092e-01	8.995352e-05	9.999074e-01	9.293057e-05	9.293057e-05	9.999074e-01	9.254723e-05	9.254721e-05	9.999109e-01	9.999109e-01	9.999109e-01	
131	1.140000e-09	1.000000e+00	8.981534e-05	9.999092e-01	9.003953e-05	9.999075e-01	9.315636e-05	9.315636e-05	9.999075e-01	9.352471e-05	9.352472e-05	9.999109e-01	9.999109e-01	9.999109e-01	
132	1.150000e-09	1.000000e+00	8.981614e-05	9.999092e-01	8.995484e-05	9.999074e-01	9.293467e-05	9.293467e-05	9.999074e-01	9.258451e-05	9.258449e-05	9.999109e-01	9.999109e-01	9.999109e-01	
133	1.160000e-09	1.000000e+00	8.981531e-05	9.999092e-01	9.003824e-05	9.999075e-01	9.315272e-05	9.315272e-05	9.999075e-01	9.348889e-05	9.348889e-05	9.999109e-01	9.999109e-01	9.999109e-01	
134	1.170000e-09	1.000000e+00	8.981616e-05	9.999092e-01	8.995609e-05	9.999074e-01	9.293792e-05	9.293792e-05	9.999074e-01	9.261896e-05	9.261895e-05	9.999109e-01	9.999109e-01	9.999109e-01	
135	1.180000e-09	1.000000e+00	8.981530e-05	9.999092e-01	9.003703e-05	9.999075e-01	9.314985e-05	9.314985e-05	9.999075e-01	9.345578e-05	9.345578e-05	9.999109e-01	9.999109e-01	9.999109e-01	
136	1.190000e-09	1.000000e+00	8.981616e-05	9.999092e-01	8.995727e-05	9.999074e-01	9.294048e-05	9.294048e-05	9.999074e-01	9.265081e-05	9.265080e-05	9.999109e-01	9.999109e-01	9.999109e-01	
137	1.200000e-09	1.000000e+00	8.981529e-05	9.999092e-01	9.003589e-05	9.999075e-01	9.314760e-05	9.314760e-05	9.999074e-01	9.342517e-05	9.342518e-05	9.999109e-01	9.999109e-01	9.999109e-01	
138	1.210000e-09	1.000000e+00	8.981617e-05	9.999092e-01	8.995839e-05	9.999074e-01	9.294250e-05	9.294250e-05	9.999074e-01	9.268024e-05	9.268023e-05	9.999109e-01	9.999109e-01	9.999109e-01	
139	1.220000e-09	1.000000e+00	8.981529e-05	9.999092e-01	9.003480e-05	9.999075e-01	9.314582e-05	9.314582e-05	9.999074e-01	9.339689e-05	9.339689e-05	9.999109e-01	9.999109e-01	9.999109e-01	
140	1.230000e-09	1.000000e+00	8.981617e-05	9.999092e-01	8.995946e-05	9.999074e-01	9.294409e-05	9.294409e-05	9.999074e-01	9.270745e-05	9.270744e-05	9.999109e-01	9.999109e-01	9.999109e-01	
141	1.240000e-09	1.000000e+00	8.981530e-05	9.999092e-01	9.003377e-05	9.999075e-01	9.314443e-05	9.314443e-05	9.999074e-01	9.337074e-05	9.337075e-05	9.999109e-01	9.999109e-01	9.999109e-01	
142	1.250000e-09	1.000000e+00	8.981616e-05	9.999092e-01	8.996047e-05	9.999074e-01	9.294533e-05	9.294533e-05	9.999074e-01	9.273260e-05	9.273259e-05	9.999109e-01	9.999109e-01	9.999109e-01	
143	1.260000e-09	1.000000e+00	8.981531e-05	9.999092e-01	9.003279e-05	9.999075e-01	9.314335e-05	9.314335e-05	9.999074e-01	9.334658e-05	9.334658e-05	9.999109e-01	9.999109e-01	9.999109e-01	
144	1.270000e-09	1.000000e+00	8.981615e-05	9.999092e-01	8.996142e-05	9.999074e-01	9.294630e-05	9.294630e-05	9.999074e-01	9.275585e-05	9.275584e-05	9.999109e-01	9.999109e-01	9.999109e-01	
145	1.280000e-09	1.000000e+00	8.981532e-05	9.999092e-01	9.003186e-05	9.999074e-01	9.314251e-05	9.314251e-05	9.999074e-01	9.332424e-05	9.332424e-05	9.999109e-01	9.999109e-01	9.999109e-01	
146	1.290000e-09	1.000000e+00	8.981614e-05	9.999092e-01	8.996234e-05	9.999074e-01	9.294706e-05	9.294706e-05	9.999074e-01	9.277734e-05	9.277733e-05	9.999109e-01	9.999109e-01	9.999109e-01	
147	1.300000e-09	1.000000e+00	8.981533e-05	9.999092e-01	9.003097e-05	9.999074e-01	9.314186e-05	9.314186e-05	9.999074e-01	9.330359e-05	9.330359e-05	9.999109e-01	9.999109e-01	9.999109e-01	
148	1.310000e-09	1.000000e+00	8.981613e-05	9.999092e-01	8.996320e-05	9.999074e-01	9.294764e-05	9.294764e-05	9.999074e-01	9.279720e-05	9.279719e-05	9.999109e-01	9.999109e-01	9.999109e-01	
149	1.320000e-09	1.000000e+00	8.981534e-05	9.999092e-01	9.003013e-05	9.999074e-01	9.314136e-05	9.314136e-05	9.999074e-01	9.328450e-05	9.328450e-05	9.999109e-01	9.999109e-01	9.999109e-01	
150	1.330000e-09	1.000000e+00	8.981611e-05	9.999092e-01	8.996403e-05	9.999074e-01	9.294809e-05	9.294809e-05	9.999074e-01	9.281557e-05	9.281556e-05	9.999109e-01	9.999109e-01	9.999109e-01	
151	1.340000e-09	1.000000e+00	8.981536e-05	9.999092e-01	9.002932e-05	9.999074e-01	9.314099e-05	9.314099e-05	9.999074e-01	9.326686e-05	9.326686e-05	9.999109e-01	9.999109e-01	9.999109e-01	
152	1.350000e-09	1.000000e+00	8.981610e-05	9.999092e-01	8.996482e-05	9.999074e-01	9.294843e-05	9.294843e-05	9.999074e-01	9.283254e-05	9.283253e-05	9.999109e-01	9.999109e-01	9.999109e-01	
153	1.360000e-09	1.000000e+00	8.981537e-05	9.999092e-01	9.002856e-05	9.999074e-01	9.314071e-05	9.314071e-05	9.999074e-01	9.325055e-05	9.325055e-05	9.999109e-01	9.999109e-01	9.999109e-01	
154	1.370000e-09	1.000000e+00	8.981608e-05	9.999092e-01	8.996557e-05	9.999074e-01	9.294868e-05	9.294868e-05	9.999074e-01	9.284823e-05	9.284822e-05	9.999109e-01	9.999109e-01	9.999109e-01	
155	1.380000e-09	1.000000e+00	8.981539e-05	9.999092e-01	9.002783e-05	9.999074e-01	9.314051e-05	9.314051e-05	9.999074e-01	9.323547e-05	9.323548e-05	9.999109e-01	9.999109e-01	9.999109e-01	
156	1.390000e-09	1.000000e+00	8.981607e-05	9.999092e-01	8.996628e-05	9.999074e-01	9.294887e-05	9.294887e-05	9.999074e-01	9.286274e-05	9.286273e-05	9.999109e-01	9.999109e-01	9.999109e-01	
157	1.400000e-09	1.000000e+00	8.981540e-05	9.999092e-01	9.002713e-05	9.999074e-01	9.314036e-05	9.314036e-05	9.999074e-01	9.322154e-05	9.322154e-05	9.999109e-01	9.999109e-01	9.999109e-01	
158	1.410000e-09	1.000000e+00	8.981605e-05	9.999092e-01	8.996697e-05	9.999074e-01	9.294900e-05	9.294900e-05	9.999074e-01	9.287614e-05	9.287613e-05	9.999109e-01	9.999109e-01	9.999109e-01	
159	1.420000e-09	1.000000e+00	8.981542e-05	9.999092e-01	9.002647e-05	9.999074e-01	9.314027e-05	9.314027e-05	9.999074e-01	9.320866e-05	9.320866e-05	9.999109e-01	9.999109e-01	9.999109e-01	
160	1.430000e-09	1.000000e+00	8.981604e-05	9.999092e-01	8.996762e-05	9.999074e-01	9.294909e-05	9.294909e-05	9.999074e-01	9.288854e-05	9.288853e-05	9.999109e-01	9.999109e-01	9.999109e-01	
161	1.440000e-09	1.000000e+00	8.981543e-05	9.999092e-01	9.002584e-05	9.999074e-01	9.314021e-05	9.314021e-05	9.999074e-01	9.319676e-05	9.319676e-05	9.999109e-01	9.999109e-01	9.999109e-01	
162	1.450000e-09	1.000000e+00	8.981602e-05	9.999092e-01	8.996824e-05	9.999074e-01	9.294914e-05	9.294914e-05	9.999074e-01	9.289999e-05	9.289998e-05	9.999109e-01	9.999109e-01	9.999109e-01	
163	1.460000e-09	1.000000e+00	8.981545e-05	9.999092e-01	9.002523e-05	9.999074e-01	9.314018e-05	9.314018e-05	9.999074e-01	9.318575e-05	9.318576e-05	9.999109e-01	9.999109e-01	9.999109e-01	
164	1.470000e-09	1.000000e+00	8.981601e-05	9.999092e-01	8.996884e-05	9.999074e-01	9.294917e-05	9.294917e-05	9.999074e-01	9.291058e-05	9.291057e-05	9.999109e-01	9.999109e-01	9.999109e-01	
165	1.480000e-09	1.000000e+00	8.981546e-05	9.999092e-01	9.002465e-05	9.999074e-01	9.314017e-05	9.314017e-05	9.999074e-01	9.317559e-05	9.317559e-05	9.999109e-01	9.999109e-01	9.999109e-01	
166	1.490000e-09	1.000000e+00	8.981599e-05	9.999092e-01	8.996940e-05	9.999074e-01	9.294919e-05	9.294919e-05	9.999074e-01	9.292037e-05	9.292036e-05	9.999109e-01	9.999109e-01	9.999109e-01	
167	1.500000e-09	1.000000e+00	8.981547e-05	9.999092e-01	9.002410e-05	9.999074e-01	9.314018e-05	9.314018e-05	9.999074e-01	9.316619e-05	9.316619e-05	9.999109e-01	9.999109e-01	9.999109e-01	
168	1.510000e-09	1.000000e+00	8.981598e-05	9.999092e-01	8.996995e-05	9.999074e-01	9.294918e-05	9.294918e-05	9.999074e-01	9.292941e-05	9.292940e-05	9.999109e-01	9.999109e-01	9.999109e-01	
169	1.520000e-09	1.000000e+00	8.981549e-05	9.999092e-01	9.002357e-05	9.999074e-01	9.314020e-05	9.314020e-05	9.999074e-01	9.315750e-05	9.315750e-05	9.999109e-01	9.999109e-01	9.999109e-01	
170	1.530000e-09	1.000000e+00	8.981597e-05	9.999092e-01	8.997047e-05	9.999074e-01	9.294916e-05	9.294916e-05	9.999074e-01	9.293777e-05	9.293777e-05	9.999109e-01	9.999109e-01	9.999109e-01	
171	1.540000e-09	1.000000e+00	8.981550e-05	9.999092e-01	9.002307e-05	9.999074e-01	9.314024e-05	9.314024e-05	9.999074e-01	9.314947e-05	9.314947e-05	9.999109e-01	9.999109e-01	9.999109e-01	
172	1.550000e-09	1.000000e+00	8.981595e-05	9.999092e-01	8.997097e-05	9.999074e-01	9.294914e-05	9.294914e-05	9.999074e-01	9.294550e-05	9.294549e-05	9.999109e-01	9.999109e-01	9.999109e-01	
173	1.560000e-09	1.000000e+00	8.981551e-05	9.999092e-01	9.002258e-05	9.999074e-01	9.314028e-05	9.314028e-05	9.999074e-01	9.314205e-05	9.314205e-05	9.999109e-01	9.999109e-01	9.999109e-01	
174	1.570000e-09	1.000000e+00	8.981594e-05	9.999092e-01	8.997144e-05	9.999074e-01	9.294911e-05	9.294911e-05	9.999074e-01	9.295264e-05	9.295264e-05	9.999109e-01	9.999109e-01	9.999109e-01	
175	1.580000e-09	1.000000e+00	8.981553e-05	9.999092e-01	9.002212e-05	9.999074e-01	9.314033e-05	9.314033e-05	9.999074e-01	9.313519e-05	9.313519e-05	9.999109e-01	9.999109e-01	9.999109e-01	
176	1.590000e-09	1.000000e+00	8.981593e-05	9.999092e-01	8.997190e-05	9.999074e-01	9.294907e-05	9.294907e-05	9.999074e-01	9.295925e-05	9.295924e-05	9.999109e-01	9.999109e-01	9.999109e-01	
177	1.600000e-09	1.000000e+00	8.981554e-05	9.999092e-01	9.002168e-05	9.999074e-01	9.314038e-05	9.314038e-05	9.999074e-01	9.312885e-05	9.312885e-05	9.999109e-01	9.999109e-01	9.999109e-01	
178	1.610000e-09	1.000000e+00	8.981592e-05	9.999092e-01	8.997233e-05	9.999074e-01	9.294903e-05	9.294903e-05	9.999074e-01	9.296535e-05	9.296534e-05	9.999109e-01	9.999109e-01	9.999109e-01	
179	1.620000e-09	1.000000e+00	8.981555e-05	9.999092e-01	9.002125e-05	9.999074e-01	9.314043e-05	9.314043e-05	9.999074e-01	9.312300e-05	9.312300e-05	9.999109e-01	9.999109e-01	9.999109e-01	
180	1.630000e-09	1.000000e+00	8.981591e-05	9.999092e-01	8.997275e-05	9.999074e-01	9.294899e-05	9.294899e-05	9.999074e-01	9.297099e-05	9.297098e-05	9.999109e-01	9.999109e-01	9.999109e-01	
181	1.640000e-09	1.000000e+00	8.981556e-05	9.999092e-01	9.002085e-05	9.999074e-01	9.314048e-05	9.314048e-05	9.999074e-01	9.311758e-05	9.311758e-05	9.999109e-01	9.999109e-01	9.999109e-01	
182	1.650000e-09	1.000000e+00	8.981590e-05	9.999092e-01	8.997315e-05	9.999074e-01	9.294895e-05	9.294895e-05	9.999074e-01	9.297620e-05	9.297620e-05	9.999109e-01	9.999109e-01	9.999109e-01	
183	1.660000e-09	1.000000e+00	8.981557e-05	9.999092e-01	9.002046e-05	9.999074e-01	9.314054e-05	9.314054e-05	9.999074e-01	9.311258e-05	9.311258e-05	9.999109e-01	9.999109e-01	9.999109e-01	
184	1.670000e-09	1.000000e+00	8.981589e-05	9.999092e-01	8.997354e-05	9.999074e-01	9.294891e-05	9.294891e-05	9.999074e-01	9.298102e-05	9.298102e-05	9.999109e-01	9.999109e-01	9.999109e-01	
185	1.680000e-09	1.000000e+00	8.981558e-05	9.999092e-01	9.002008e-05	9.999074e-01	9.314059e-05	9.314059e-05	9.999074e-01	9.310795e-05	9.310795e-05	9.999109e-01	9.999109e-01	9.999109e-01	
186	1.690000e-09	1.000000e+00	8.981588e-05	9.999092e-01	8.997391e-05	9.999074e-01	9.294886e-05	9.294886e-05	9.999074e-01	9.298548e-05	9.298547e-05	9.999109e-01	9.999109e-01	9.999109e-01	
187	1.700000e-09	1.000000e+00	8.981559e-05	9.999092e-01	9.001972e-05	9.999074e-01	9.314064e-05	9.314064e-05	9.999074e-01	9.310368e-05	9.310368e-05	9.999109e-01	9.999109e-01	9.999109e-01	
188	1.710000e-09	1.000000e+00	8.981587e-05	9.999092e-01	8.997426e-05	9.999074e-01	9.294882e-05	9.294882e-05	9.999074e-01	9.298960e-05	9.298959e-05	9.999109e-01	9.999109e-01	9.999109e-01	
189	1.720000e-09	1.000000e+00	8.981560e-05	9.999092e-01	9.001938e-05	9.999074e-01	9.314069e-05	9.314069e-05	9.999074e-01	9.309973e-05	9.309973e-05	9.999109e-01	9.999109e-01	9.999109e-01	
190	1.730000e-09	1.000000e+00	8.981586e-05	9.999092e-01	8.997460e-05	9.999074e-01	9.294878e-05	9.294878e-05	9.999074e-01	9.299340e-05	9.299340e-05	9.999109e-01	9.999109e-01	9.999109e-01	
191	1.740000e-09	1.000000e+00	8.981561e-05	9.999092e-01	9.001905e-05	9.999074e-01	9.314074e-05	9.314074e-05	9.999074e-01	9.309608e-05	9.309608e-05	9.999109e-01	9.999109e-01	9.999109e-01	
192	1.750000e-09	1.000000e+00	8.981585e-05	9.999092e-01	8.997493e-05	9.999074e-01	9.294875e-05	9.294875e-05	9.999074e-01	9.299692e-05	9.299692e-05	9.999109e-01	9.999109e-01	9.999109e-01	
193	1.760000e-09	1.000000e+00	8.981562e-05	9.999092e-01	9.001873e-05	9.999074e-01	9.314079e-05	9.314079e-05	9.999074e-01	9.309270e-05	9.309270e-05	9.999109e-01	9.999109e-01	9.999109e-01	
194	1.770000e-09	1.000000e+00	8.981584e-05	9.999092e-01	8.997524e-05	9.999074e-01	9.294871e-05	9.294871e-05	9.999074e-01	9.300017e-05	9.300017e-05	9.999109e-01	9.999109e-01	9.999109e-01	
195	1.780000e-09	1.000000e+00	8.981562e-05	9.999092e-01	9.001843e-05	9.999074e-01	9.314083e-05	9.314083e-05	9.999074e-01	9.308958e-05	9.308958e-05	9.999109e-01	9.999109e-01	9.999109e-01	
196	1.790000e-09	1.000000e+00	8.981583e-05	9.999092e-01	8.997555e-05	9.999074e-01	9.294868e-05	9.294868e-05	9.999074e-01	9.300318e-05	9.300318e-05	9.999109e-01	9.999109e-01	9.999109e-01	
197	1.800000e-09	1.000000e+00	8.981563e-05	9.999092e-01	9.001813e-05	9.999074e-01	9.314088e-05	9.314088e-05	9.999074e-01	9.308670e-05	9.308670e-05	9.999109e-01	9.999109e-01	9.999109e-01	
198	1.810000e-09	1.000000e+00	8.981583e-05	9.999092e-01	8.997584e-05	9.999074e-01	9.294865e-05	9.294865e-05	9.999074e-01	9.300596e-05	9.300596e-05	9.999109e-01	9.999109e-01	9.999109e-01	
199	1.820000e-09	1.000000e+00	8.981564e-05	9.999092e-01	9.001785e-05	9.999074e-01	9.314092e-05	9.314092e-05	9.999074e-01	9.308404e-05	9.308403e-05	9.999109e-01	9.999109e-01	9.999109e-01	
200	1.830000e-09	1.000000e+00	8.981582e-05	9.999092e-01	8.997612e-05	9.999074e-01	9.294862e-05	9.294862e-05	9.999074e-01	9.300853e-05	9.300853e-05	9.999109e-01	9.999109e-01	9.999109e-01	
201	1.840000e-09	1.000000e+00	8.981565e-05	9.999092e-01	9.001758e-05	9.999074e-01	9.314095e-05	9.314095e-05	9.999074e-01	9.308157e-05	9.308157e-05	9.999109e-01	9.999109e-01	9.999109e-01	
202	1.850000e-09	1.000000e+00	8.981581e-05	9.999092e-01	8.997639e-05	9.999074e-01	9.294859e-05	9.294859e-05	9.999074e-01	9.301091e-05	9.301091e-05	9.999109e-01	9.999109e-01	9.999109e-01	
203	1.860000e-09	1.000000e+00	8.981565e-05	9.999092e-01	9.001732e-05	9.999074e-01	9.314099e-05	9.314099e-05	9.999074e-01	9.307929e-05	9.307929e-05	9.999109e-01	9.999109e-01	9.999109e-01	
204	1.870000e-09	1.000000e+00	8.981580e-05	9.999092e-01	8.997664e-05	9.999074e-01	9.294857e-05	9.294857e-05	9.999074e-01	9.301311e-05	9.301310e-05	9.999109e-01	9.999109e-01	9.999109e-01	
205	1.880000e-09	1.000000e+00	8.981566e-05	9.999092e-01	9.001707e-05	9.999074e-01	9.314102e-05	9.314102e-05	9.999074e-01	9.307719e-05	9.307719e-05	9.999109e-01	9.999109e-01	9.999109e-01	
206	1.890000e-09	1.000000e+00	8.981580e-05	9.999092e-01	8.997689e-05	9.999074e-01	9.294855e-05	9.294855e-05	9.999074e-01	9.301514e-05	9.301514e-05	9.999109e-01	9.999109e-01	9.999109e-01	
207	1.900000e-09	1.000000e+00	8.981567e-05	9.999092e-01	9.001683e-05	9.999074e-01	9.314105e-05	9.314105e-05	9.999074e-01	9.307524e-05	9.307524e-05	9.999109e-01	9.999109e-01	9.999109e-01	
208	1.910000e-09	1.000000e+00	8.981579e-05	9.999092e-01	8.997713e-05	9.999074e-01	9.294853e-05	9.294853e-05	9.999074e-01	9.301702e-05	9.301702e-05	9.999109e-01	9.999109e-01	9.999109e-01	
209	1.920000e-09	1.000000e+00	8.981567e-05	9.999092e-01	9.001659e-05	9.999074e-01	9.314107e-05	9.314107e-05	9.999074e-01	9.307344e-05	9.307344e-05	9.999109e-01	9.999109e-01	9.999109e-01	
210	1.930000e-09	1.000000e+00	8.981579e-05	9.999092e-01	8.997736e-05	9.999074e-01	9.294852e-05	9.294852e-05	9.999074e-01	9.301876e-05	9.301876e-05	9.999109e-01	9.999109e-01	9.999109e-01	
211	1.940000e-09	1.000000e+00	8.981568e-05	9.999092e-01	9.001637e-05	9.999074e-01	9.314109e-05	9.314109e-05	9.999074e-01	9.307177e-05	9.307177e-05	9.999109e-01	9.999109e-01	9.999109e-01	
212	1.950000e-09	1.000000e+00	8.981578e-05	9.999092e-01	8.997759e-05	9.999074e-01	9.294851e-05	9.294851e-05	9.999074e-01	9.302037e-05	9.302037e-05	9.999109e-01	9.999109e-01	9.999109e-01	
213	1.960000e-09	1.000000e+00	8.981568e-05	9.999092e-01	9.001615e-05	9.999074e-01	9.314111e-05	9.314111e-05	9.999074e-01	9.307023e-05	9.307023e-05	9.999109e-01	9.999109e-01	9.999109e-01	
214	1.970000e-09	1.000000e+00	8.981578e-05	9.999092e-01	8.997780e-05	9.999074e-01	9.294850e-05	9.294850e-05	9.999074e-01	9.302186e-05	9.302185e-05	9.999109e-01	9.999109e-01	9.999109e-01	
215	1.980000e-09	1.000000e+00	8.981569e-05	9.999092e-01	9.001595e-05	9.999074e-01	9.314113e-05	9.314113e-05	9.999074e-01	9.306881e-05	9.306881e-05	9.999109e-01	9.999109e-01	9.999109e-01	
216	1.990000e-09	1.000000e+00	8.981577e-05	9.999092e-01	8.997801e-05	9.999074e-01	9.294850e-05	9.294850e-05	9.999074e-01	9.302324e-05	9.302323e-05	9.999109e-01	9.999109e-01	9.999109e-01	
217	2.000000e-09	1.000000e+00	8.981569e-05	9.999092e-01	9.001574e-05	9.999074e-01	9.314114e-05	9.314114e-05	9.999074e-01	9.306749e-05	9.306749e-05	9.999109e-01	9.999109e-01	9.999109e-01	

                                                                                                                * spice from s1s
                                                                                                                Transient Analysis  Sat Feb  7 10:35:13  2009
------------------------------------------------------------------------------------------------------------------------------------------------------------------------------------------------------------------------------------------------
Index   time            v(n7)           
------------------------------------------------------------------------------------------------------------------------------------------------------------------------------------------------------------------------------------------------
0	0.000000e+00	0.000000e+00	
1	1.000000e-13	3.266603e-02	
2	1.886509e-13	6.001212e-02	
3	3.659528e-13	1.116276e-01	
4	7.205565e-13	1.981123e-01	
5	1.429764e-12	3.188075e-01	
6	2.109532e-12	3.864167e-01	
7	3.174994e-12	4.377019e-01	
8	4.290706e-12	4.503720e-01	
9	6.388900e-12	4.299232e-01	
10	8.369540e-12	3.907739e-01	
11	1.142748e-11	3.286893e-01	
12	1.458332e-11	2.715634e-01	
13	2.007976e-11	1.927848e-01	
14	2.690530e-11	1.247288e-01	
15	3.690530e-11	6.456645e-02	
16	4.690530e-11	3.321379e-02	
17	5.690530e-11	1.705565e-02	
18	6.690530e-11	8.768641e-03	
19	7.690530e-11	4.528863e-03	
20	8.690530e-11	2.360960e-03	
21	9.690530e-11	1.253041e-03	
22	1.069053e-10	6.864507e-04	
23	1.169053e-10	3.958159e-04	
24	1.269053e-10	2.468080e-04	
25	1.369053e-10	1.698146e-04	
26	1.469053e-10	1.303160e-04	
27	1.569053e-10	1.095468e-04	
28	1.669053e-10	9.902394e-05	
29	1.769053e-10	9.320431e-05	
30	1.869053e-10	9.045157e-05	
31	1.969053e-10	8.866807e-05	
32	2.000000e-10	8.857248e-05	
33	2.010000e-10	8.838330e-05	
34	2.030000e-10	8.821987e-05	
35	2.070000e-10	8.796166e-05	
36	2.150000e-10	8.758131e-05	
37	2.250000e-10	8.731234e-05	
38	2.350000e-10	8.715321e-05	
39	2.450000e-10	8.707453e-05	
40	2.550000e-10	8.701981e-05	
41	2.650000e-10	8.699857e-05	
42	2.750000e-10	8.697622e-05	
43	2.850000e-10	8.697314e-05	
44	2.950000e-10	8.696176e-05	
45	3.050000e-10	8.696556e-05	
46	3.150000e-10	8.695524e-05	
47	3.250000e-10	8.692725e-05	
48	3.260000e-10	8.691736e-05	
49	3.280000e-10	8.690079e-05	
50	3.320000e-10	8.685359e-05	
51	3.400000e-10	8.683671e-05	
52	3.500000e-10	8.873429e-05	
53	3.600000e-10	9.706728e-05	
54	3.700000e-10	1.017507e-04	
55	3.800000e-10	-1.747313e-05	
56	3.900000e-10	-5.564893e-04	
57	4.000000e-10	-1.245945e-03	
58	4.100000e-10	4.556192e-03	
59	4.200000e-10	4.329243e-02	
60	4.300000e-10	1.550418e-01	
61	4.400000e-10	3.406849e-01	
62	4.500000e-10	5.464661e-01	
63	4.600000e-10	7.178378e-01	
64	4.700000e-10	8.344108e-01	
65	4.800000e-10	9.051577e-01	
66	4.900000e-10	9.464209e-01	
67	5.000000e-10	9.699136e-01	
68	5.100000e-10	9.831601e-01	
69	5.200000e-10	9.905624e-01	
70	5.300000e-10	9.947078e-01	
71	5.400000e-10	9.970037e-01	
72	5.500000e-10	9.982933e-01	
73	5.600000e-10	9.990019e-01	
74	5.700000e-10	9.994058e-01	
75	5.800000e-10	9.996245e-01	
76	5.900000e-10	9.997525e-01	
77	6.000000e-10	9.998198e-01	
78	6.100000e-10	9.998610e-01	
79	6.200000e-10	9.998816e-01	
80	6.300000e-10	9.998952e-01	
81	6.400000e-10	9.999013e-01	
82	6.500000e-10	9.999060e-01	
83	6.600000e-10	9.999077e-01	
84	6.700000e-10	9.999094e-01	
85	6.800000e-10	9.999098e-01	
86	6.900000e-10	9.999104e-01	
87	7.000000e-10	9.999105e-01	
88	7.100000e-10	9.999108e-01	
89	7.200000e-10	9.999108e-01	
90	7.300000e-10	9.999109e-01	
91	7.400000e-10	9.999109e-01	
92	7.500000e-10	9.999109e-01	
93	7.600000e-10	9.999109e-01	
94	7.700000e-10	9.999109e-01	
95	7.800000e-10	9.999109e-01	
96	7.900000e-10	9.999109e-01	
97	8.000000e-10	9.999109e-01	
98	8.100000e-10	9.999109e-01	
99	8.200000e-10	9.999109e-01	
100	8.300000e-10	9.999109e-01	
101	8.400000e-10	9.999109e-01	
102	8.500000e-10	9.999109e-01	
103	8.600000e-10	9.999109e-01	
104	8.700000e-10	9.999109e-01	
105	8.800000e-10	9.999109e-01	
106	8.900000e-10	9.999109e-01	
107	9.000000e-10	9.999109e-01	
108	9.100000e-10	9.999109e-01	
109	9.200000e-10	9.999109e-01	
110	9.300000e-10	9.999109e-01	
111	9.400000e-10	9.999109e-01	
112	9.500000e-10	9.999109e-01	
113	9.600000e-10	9.999109e-01	
114	9.700000e-10	9.999109e-01	
115	9.800000e-10	9.999109e-01	
116	9.900000e-10	9.999109e-01	
117	1.000000e-09	9.999109e-01	
118	1.010000e-09	9.999109e-01	
119	1.020000e-09	9.999109e-01	
120	1.030000e-09	9.999109e-01	
121	1.040000e-09	9.999109e-01	
122	1.050000e-09	9.999109e-01	
123	1.060000e-09	9.999109e-01	
124	1.070000e-09	9.999109e-01	
125	1.080000e-09	9.999109e-01	
126	1.090000e-09	9.999109e-01	
127	1.100000e-09	9.999109e-01	
128	1.110000e-09	9.999109e-01	
129	1.120000e-09	9.999109e-01	
130	1.130000e-09	9.999109e-01	
131	1.140000e-09	9.999109e-01	
132	1.150000e-09	9.999109e-01	
133	1.160000e-09	9.999109e-01	
134	1.170000e-09	9.999109e-01	
135	1.180000e-09	9.999109e-01	
136	1.190000e-09	9.999109e-01	
137	1.200000e-09	9.999109e-01	
138	1.210000e-09	9.999109e-01	
139	1.220000e-09	9.999109e-01	
140	1.230000e-09	9.999109e-01	
141	1.240000e-09	9.999109e-01	
142	1.250000e-09	9.999109e-01	
143	1.260000e-09	9.999109e-01	
144	1.270000e-09	9.999109e-01	
145	1.280000e-09	9.999109e-01	
146	1.290000e-09	9.999109e-01	
147	1.300000e-09	9.999109e-01	
148	1.310000e-09	9.999109e-01	
149	1.320000e-09	9.999109e-01	
150	1.330000e-09	9.999109e-01	
151	1.340000e-09	9.999109e-01	
152	1.350000e-09	9.999109e-01	
153	1.360000e-09	9.999109e-01	
154	1.370000e-09	9.999109e-01	
155	1.380000e-09	9.999109e-01	
156	1.390000e-09	9.999109e-01	
157	1.400000e-09	9.999109e-01	
158	1.410000e-09	9.999109e-01	
159	1.420000e-09	9.999109e-01	
160	1.430000e-09	9.999109e-01	
161	1.440000e-09	9.999109e-01	
162	1.450000e-09	9.999109e-01	
163	1.460000e-09	9.999109e-01	
164	1.470000e-09	9.999109e-01	
165	1.480000e-09	9.999109e-01	
166	1.490000e-09	9.999109e-01	
167	1.500000e-09	9.999109e-01	
168	1.510000e-09	9.999109e-01	
169	1.520000e-09	9.999109e-01	
170	1.530000e-09	9.999109e-01	
171	1.540000e-09	9.999109e-01	
172	1.550000e-09	9.999109e-01	
173	1.560000e-09	9.999109e-01	
174	1.570000e-09	9.999109e-01	
175	1.580000e-09	9.999109e-01	
176	1.590000e-09	9.999109e-01	
177	1.600000e-09	9.999109e-01	
178	1.610000e-09	9.999109e-01	
179	1.620000e-09	9.999109e-01	
180	1.630000e-09	9.999109e-01	
181	1.640000e-09	9.999109e-01	
182	1.650000e-09	9.999109e-01	
183	1.660000e-09	9.999109e-01	
184	1.670000e-09	9.999109e-01	
185	1.680000e-09	9.999109e-01	
186	1.690000e-09	9.999109e-01	
187	1.700000e-09	9.999109e-01	
188	1.710000e-09	9.999109e-01	
189	1.720000e-09	9.999109e-01	
190	1.730000e-09	9.999109e-01	
191	1.740000e-09	9.999109e-01	
192	1.750000e-09	9.999109e-01	
193	1.760000e-09	9.999109e-01	
194	1.770000e-09	9.999109e-01	
195	1.780000e-09	9.999109e-01	
196	1.790000e-09	9.999109e-01	
197	1.800000e-09	9.999109e-01	
198	1.810000e-09	9.999109e-01	
199	1.820000e-09	9.999109e-01	
200	1.830000e-09	9.999109e-01	
201	1.840000e-09	9.999109e-01	
202	1.850000e-09	9.999109e-01	
203	1.860000e-09	9.999109e-01	
204	1.870000e-09	9.999109e-01	
205	1.880000e-09	9.999109e-01	
206	1.890000e-09	9.999109e-01	
207	1.900000e-09	9.999109e-01	
208	1.910000e-09	9.999109e-01	
209	1.920000e-09	9.999109e-01	
210	1.930000e-09	9.999109e-01	
211	1.940000e-09	9.999109e-01	
212	1.950000e-09	9.999109e-01	
213	1.960000e-09	9.999109e-01	
214	1.970000e-09	9.999109e-01	
215	1.980000e-09	9.999109e-01	
216	1.990000e-09	9.999109e-01	
217	2.000000e-09	9.999109e-01	

CPU time since last call: 0.308 seconds.

Total CPU time: 0.308 seconds.

Total DRAM available = 3034.875000 MB.
DRAM currently available = 2332.484375 MB.
Total ngspice program size = 7.364258 MB.
Resident set size = 3.030273 MB.
Shared ngspice pages = 464.000 kB.
Text (code) pages = 1.378906 MB.
Stack = 0 bytes.
Library pages = 5.531250 MB.

