
Circuit: * spice from s2s

Doing analysis at TEMP = 75.000000 and TNOM = 27.000000


Initial Transient Solution
--------------------------

Node                                   Voltage
----                                   -------
n0                                           1
n16                                          1
n17                                          0
n18                                          0
n19                                          1
n20                                          1
n21                                          0
n22                                          0
n23                                          1
n24                                          1
n25                                          0
n26                                          0
n27                                          1
n28                                          1
n29                                          0
n1                                           0
n34                                          0
n35                                          1
n36                                          1
n37                                          0
n50                                          0
n51                                          1
n52                                          1
n53                                          0
n3                                           0
n32                                          0
n33                                          1
n38                                          1
n39                                          0
n48                                          0
n49                                          1
n54                                          1
n55                                          0
n30                                          0
n31                                          1
n4                                           0
n7                                           1
n40                                          1
n41                                          0
n46                                          0
n47                                          1
n42                                          1
n43                                          0
n44                                          0
n45                                          1
n8                                           1
n58                                          1
n59                                          0
n56                                          1
n57                                          0
n10                                          0
n13                                          1
n60                                          1
n61                                          0
n62                                          1
n63                                          0
n2                                           0
n5                                           0
n6                                           0
n9                                           0
n11                                          0
n12                                          0
n14                                          0
n15                                          0
nseg_node_64                                 1
nseg_node_65                                 1
nseg_node_66                                 1
nseg_node_67                                 1
nseg_node_68                                 1
nseg_node_69                                 1
nseg_node_70                                 1
nseg_node_71                                 1
nseg_node_72                                 1
nseg_node_73                                 1
nseg_node_74                                 1
nseg_node_75                                 1
nseg_node_76                                 1
nseg_node_77                                 1
nseg_node_78                                 1
nseg_node_79                                 1
nseg_node_80                                 1
nseg_node_81                                 1
nseg_node_82                                 1
nseg_node_83                                 1
nseg_node_84                                 1
nseg_node_85                                 1
nseg_node_86                                 1
nseg_node_87                                 1
nseg_node_88                                 1
nseg_node_89                                 1
nseg_node_90                                 1
gin                                          0
vdd                                          1
vdt#branch                                   0
vdd#branch                        -6.46708e-05


No. of Data Rows : 224

                                                                                                                * spice from s2s
                                                                                                                Transient Analysis  Sat Feb  7 10:40:23  2009
------------------------------------------------------------------------------------------------------------------------------------------------------------------------------------------------------------------------------------------------
Index   time            v(gin)          v(n16)          v(n18)          v(n20)          v(n22)          v(n24)          v(n26)          v(n28)          v(n34)          v(n36)          v(n50)          v(n52)          v(n32)          
------------------------------------------------------------------------------------------------------------------------------------------------------------------------------------------------------------------------------------------------
0	0.000000e+00	0.000000e+00	1.000000e+00	0.000000e+00	1.000000e+00	0.000000e+00	1.000000e+00	0.000000e+00	1.000000e+00	0.000000e+00	1.000000e+00	0.000000e+00	1.000000e+00	0.000000e+00	
1	1.000000e-13	0.000000e+00	1.001113e+00	6.008187e-02	1.001154e+00	6.008189e-02	1.001154e+00	6.008263e-02	1.002167e+00	9.955573e-02	1.001185e+00	6.167329e-02	1.001620e+00	1.114513e-03	
2	1.189803e-13	0.000000e+00	1.001358e+00	7.098959e-02	1.001408e+00	7.098962e-02	1.001408e+00	7.099053e-02	1.002638e+00	1.170692e-01	1.001447e+00	7.296761e-02	1.001975e+00	1.372129e-03	
3	1.569409e-13	0.000000e+00	1.001905e+00	9.185988e-02	1.001978e+00	9.185992e-02	1.001978e+00	9.186127e-02	1.003678e+00	1.495314e-01	1.002034e+00	9.476973e-02	1.002765e+00	1.988533e-03	
4	2.328621e-13	0.000000e+00	1.003257e+00	1.284434e-01	1.003401e+00	1.284435e-01	1.003401e+00	1.284462e-01	1.006138e+00	2.011372e-01	1.003516e+00	1.340531e-01	1.004693e+00	3.886135e-03	
5	3.847044e-13	0.000000e+00	1.006410e+00	1.852251e-01	1.006810e+00	1.852256e-01	1.006810e+00	1.852343e-01	1.011434e+00	2.667690e-01	1.007144e+00	1.986290e-01	1.009142e+00	1.034051e-02	
6	6.878812e-13	0.000000e+00	1.012298e+00	2.555132e-01	1.013603e+00	2.555163e-01	1.013603e+00	2.555490e-01	1.019986e+00	3.185811e-01	1.014643e+00	2.891875e-01	1.017518e+00	3.034762e-02	
7	1.004144e-12	0.000000e+00	1.016358e+00	2.918430e-01	1.018945e+00	2.918531e-01	1.018946e+00	2.919195e-01	1.024502e+00	3.236724e-01	1.020832e+00	3.483460e-01	1.023660e+00	5.489622e-02	
8	1.477746e-12	0.000000e+00	1.018377e+00	3.137039e-01	1.022860e+00	3.137335e-01	1.022861e+00	3.138357e-01	1.025177e+00	3.104900e-01	1.025683e+00	4.007615e-01	1.027788e+00	8.722890e-02	
9	2.058013e-12	0.000000e+00	1.016960e+00	3.155109e-01	1.023027e+00	3.155699e-01	1.023029e+00	3.156694e-01	1.021790e+00	2.885183e-01	1.026341e+00	4.318664e-01	1.027573e+00	1.154362e-01	
10	2.873534e-12	0.000000e+00	1.012865e+00	3.014324e-01	1.019494e+00	3.015154e-01	1.019496e+00	3.015517e-01	1.016077e+00	2.607743e-01	1.022878e+00	4.466187e-01	1.023050e+00	1.385816e-01	
11	3.732171e-12	0.000000e+00	1.008885e+00	2.800952e-01	1.014619e+00	2.801618e-01	1.014620e+00	2.801192e-01	1.011230e+00	2.365572e-01	1.017959e+00	4.450845e-01	1.016765e+00	1.502771e-01	
12	5.059333e-12	0.000000e+00	1.004780e+00	2.460417e-01	1.008007e+00	2.460186e-01	1.008004e+00	2.459301e-01	1.005953e+00	2.069243e-01	1.011603e+00	4.289089e-01	1.007294e+00	1.561193e-01	
13	6.785966e-12	0.000000e+00	1.001812e+00	2.054488e-01	1.001716e+00	2.052846e-01	1.001708e+00	2.052218e-01	1.001405e+00	1.780532e-01	1.006070e+00	3.971922e-01	9.963099e-01	1.534114e-01	
14	9.545318e-12	0.000000e+00	9.993308e-01	1.523963e-01	9.955044e-01	1.521096e-01	9.954954e-01	1.521192e-01	9.968496e-01	1.450168e-01	1.001040e+00	3.411775e-01	9.824671e-01	1.406239e-01	
15	1.298430e-11	0.000000e+00	9.978765e-01	1.040880e-01	9.918807e-01	1.038203e-01	9.918759e-01	1.038879e-01	9.939349e-01	1.165027e-01	9.977747e-01	2.755568e-01	9.719194e-01	1.208341e-01	
16	1.796468e-11	0.000000e+00	9.972796e-01	5.912477e-02	9.909574e-01	5.899199e-02	9.909600e-01	5.904501e-02	9.927507e-01	8.758766e-02	9.954485e-01	1.981682e-01	9.672787e-01	9.409900e-02	
17	2.456817e-11	0.000000e+00	9.976654e-01	2.736880e-02	9.927917e-01	2.737887e-02	9.927984e-01	2.737882e-02	9.935887e-01	6.116235e-02	9.945372e-01	1.260489e-01	9.707359e-01	6.628973e-02	
18	3.301724e-11	0.000000e+00	9.985363e-01	9.914669e-03	9.957423e-01	9.990128e-03	9.957474e-01	9.955156e-03	9.955520e-01	3.879188e-02	9.949837e-01	6.967766e-02	9.785066e-01	4.206902e-02	
19	4.301724e-11	0.000000e+00	9.992832e-01	2.914556e-03	9.980613e-01	2.981949e-03	9.980631e-01	2.956241e-03	9.974463e-01	2.258863e-02	9.962113e-01	3.405551e-02	9.862107e-01	2.451050e-02	
20	5.301724e-11	0.000000e+00	9.996554e-01	9.239423e-04	9.991723e-01	9.637562e-04	9.991724e-01	9.548415e-04	9.985936e-01	1.318421e-02	9.974013e-01	1.663981e-02	9.915209e-01	1.429947e-02	
21	6.301724e-11	0.000000e+00	9.998125e-01	3.377995e-04	9.996297e-01	3.573781e-04	9.996292e-01	3.598115e-04	9.992128e-01	7.709411e-03	9.983007e-01	8.147214e-03	9.948967e-01	8.362988e-03	
22	7.301724e-11	0.000000e+00	9.998739e-01	1.686711e-04	9.998076e-01	1.774014e-04	9.998071e-01	1.817885e-04	9.995387e-01	4.527536e-03	9.989132e-01	4.033853e-03	9.969604e-01	4.903597e-03	
23	8.301724e-11	0.000000e+00	9.998967e-01	1.117297e-04	9.998723e-01	1.153526e-04	9.998719e-01	1.203075e-04	9.997082e-01	2.671735e-03	9.993060e-01	2.013976e-03	9.981924e-01	2.894277e-03	
24	9.301724e-11	0.000000e+00	9.999052e-01	9.875639e-05	9.998969e-01	1.002177e-04	9.998966e-01	1.031594e-04	9.997991e-01	1.595241e-03	9.995500e-01	1.044590e-03	9.989166e-01	1.721631e-03	
25	1.030172e-10	0.000000e+00	9.999081e-01	9.024856e-05	9.999046e-01	9.080128e-05	9.999045e-01	9.330059e-05	9.998471e-01	9.656317e-04	9.996974e-01	5.538402e-04	9.993386e-01	1.042497e-03	
26	1.130172e-10	0.000000e+00	9.999093e-01	9.145328e-05	9.999083e-01	9.167482e-05	9.999082e-01	9.272818e-05	9.998742e-01	6.022812e-04	9.997856e-01	3.274945e-04	9.995818e-01	6.447136e-04	
27	1.230172e-10	0.000000e+00	9.999095e-01	8.827561e-05	9.999088e-01	8.834781e-05	9.999087e-01	8.940621e-05	9.998886e-01	3.882467e-04	9.998373e-01	2.018840e-04	9.997220e-01	4.158135e-04	
28	1.330172e-10	0.000000e+00	9.999098e-01	9.043424e-05	9.999096e-01	9.047108e-05	9.999096e-01	9.071988e-05	9.998973e-01	2.662255e-04	9.998677e-01	1.522226e-04	9.998017e-01	2.805244e-04	
29	1.430172e-10	0.000000e+00	9.999097e-01	8.827420e-05	9.999093e-01	8.827896e-05	9.999093e-01	8.875144e-05	9.999017e-01	1.930135e-04	9.998852e-01	1.158625e-04	9.998477e-01	2.038040e-04	
30	1.530172e-10	0.000000e+00	9.999098e-01	9.012613e-05	9.999097e-01	9.013644e-05	9.999097e-01	9.012356e-05	9.999047e-01	1.525112e-04	9.998954e-01	1.081031e-04	9.998734e-01	1.574536e-04	
31	1.630172e-10	0.000000e+00	9.999097e-01	8.844905e-05	9.999094e-01	8.844546e-05	9.999094e-01	8.868956e-05	9.999060e-01	1.270672e-04	9.999012e-01	9.470768e-05	9.998884e-01	1.320729e-04	
32	1.730172e-10	0.000000e+00	9.999098e-01	8.993340e-05	9.999097e-01	8.993933e-05	9.999097e-01	8.986053e-05	9.999071e-01	1.140142e-04	9.999047e-01	9.641941e-05	9.998965e-01	1.159078e-04	
33	1.830172e-10	0.000000e+00	9.999097e-01	8.861054e-05	9.999095e-01	8.860655e-05	9.999095e-01	8.875336e-05	9.999074e-01	1.048316e-04	9.999066e-01	8.965303e-05	9.999015e-01	1.077833e-04	
34	1.930172e-10	0.000000e+00	9.999098e-01	8.978435e-05	9.999097e-01	8.978898e-05	9.999097e-01	8.970630e-05	9.999079e-01	1.009566e-04	9.999077e-01	9.299934e-05	9.999039e-01	1.019111e-04	
35	2.000000e-10	0.000000e+00	9.999097e-01	8.876789e-05	9.999095e-01	8.876462e-05	9.999095e-01	8.885936e-05	9.999079e-01	9.808362e-05	9.999082e-01	8.885836e-05	9.999053e-01	1.002910e-04	
36	2.010000e-10	8.000000e-03	1.000002e+00	9.016241e-05	9.999096e-01	8.912230e-05	9.999096e-01	8.915655e-05	9.999079e-01	9.816474e-05	9.999082e-01	9.012898e-05	9.999053e-01	9.981071e-05	
37	2.030000e-10	2.400000e-02	1.000332e+00	9.547860e-05	9.999097e-01	8.929491e-05	9.999096e-01	8.929244e-05	9.999080e-01	9.784163e-05	9.999083e-01	9.069147e-05	9.999055e-01	9.924818e-05	
38	2.070000e-10	5.600000e-02	1.001291e+00	1.162361e-04	9.999101e-01	8.919736e-05	9.999096e-01	8.920449e-05	9.999080e-01	9.701652e-05	9.999085e-01	9.016577e-05	9.999059e-01	9.850111e-05	
39	2.150000e-10	1.200000e-01	1.002453e+00	1.330939e-04	9.999107e-01	8.929207e-05	9.999096e-01	8.926991e-05	9.999081e-01	9.598462e-05	9.999088e-01	9.030686e-05	9.999065e-01	9.725790e-05	
40	2.250000e-10	2.000000e-01	1.001591e+00	8.743941e-05	9.999090e-01	8.917575e-05	9.999096e-01	8.920766e-05	9.999081e-01	9.506677e-05	9.999090e-01	8.990577e-05	9.999070e-01	9.637493e-05	
41	2.350000e-10	2.800000e-01	9.956832e-01	-2.628923e-05	9.999063e-01	8.919547e-05	9.999096e-01	8.925951e-05	9.999082e-01	9.462546e-05	9.999091e-01	9.008213e-05	9.999072e-01	9.579365e-05	
42	2.450000e-10	3.600000e-01	9.776141e-01	-2.940805e-04	9.999017e-01	8.909797e-05	9.999096e-01	8.921147e-05	9.999082e-01	9.428450e-05	9.999091e-01	8.983119e-05	9.999073e-01	9.551784e-05	
43	2.550000e-10	4.400000e-01	9.365559e-01	-7.940664e-04	9.998938e-01	8.907017e-05	9.999096e-01	8.925300e-05	9.999082e-01	9.416388e-05	9.999092e-01	9.000193e-05	9.999074e-01	9.530114e-05	
44	2.650000e-10	5.200000e-01	8.564953e-01	-1.321546e-03	9.998887e-01	8.904364e-05	9.999096e-01	8.921549e-05	9.999082e-01	9.402271e-05	9.999092e-01	8.982383e-05	9.999075e-01	9.522656e-05	
45	2.750000e-10	6.000000e-01	7.195479e-01	2.409485e-03	9.999775e-01	9.074520e-05	9.999096e-01	8.924903e-05	9.999082e-01	9.400585e-05	9.999092e-01	8.996596e-05	9.999075e-01	9.513650e-05	
46	2.850000e-10	6.800000e-01	5.263595e-01	3.886475e-02	1.000759e+00	1.037278e-04	9.999099e-01	8.922403e-05	9.999082e-01	9.393631e-05	9.999092e-01	8.983271e-05	9.999075e-01	9.512669e-05	
47	2.950000e-10	7.600000e-01	3.093290e-01	1.918810e-01	1.003044e+00	1.377342e-04	9.999105e-01	8.925945e-05	9.999082e-01	9.395066e-05	9.999092e-01	8.994546e-05	9.999075e-01	9.508230e-05	
48	3.050000e-10	8.400000e-01	1.407893e-01	4.726181e-01	9.723399e-01	-4.183719e-04	9.998987e-01	8.902608e-05	9.999082e-01	9.390879e-05	9.999092e-01	8.984401e-05	9.999075e-01	9.509168e-05	
49	3.150000e-10	9.200000e-01	5.746809e-02	7.364098e-01	7.935692e-01	-2.330865e-03	9.998586e-01	8.840769e-05	9.999082e-01	9.393033e-05	9.999092e-01	8.993164e-05	9.999075e-01	9.506500e-05	
50	3.250000e-10	1.000000e+00	2.351098e-02	8.859859e-01	4.644378e-01	4.086094e-02	1.000788e+00	1.047130e-04	9.999085e-01	9.390351e-05	9.999092e-01	8.985417e-05	9.999075e-01	9.508098e-05	
51	3.260000e-10	1.000000e+00	2.170469e-02	8.944465e-01	4.291632e-01	5.253865e-02	1.001034e+00	1.089830e-04	9.999086e-01	9.391403e-05	9.999092e-01	8.988087e-05	9.999075e-01	9.507443e-05	
52	3.280000e-10	1.000000e+00	1.829694e-02	9.102018e-01	3.620980e-01	8.230470e-02	1.001662e+00	1.198546e-04	9.999088e-01	9.391898e-05	9.999092e-01	8.989507e-05	9.999075e-01	9.507275e-05	
53	3.320000e-10	1.000000e+00	1.268842e-02	9.357306e-01	2.519481e-01	1.766995e-01	1.003556e+00	1.537795e-04	9.999095e-01	9.392187e-05	9.999092e-01	8.988647e-05	9.999075e-01	9.507905e-05	
54	3.400000e-10	1.000000e+00	6.004111e-03	9.684466e-01	1.172981e-01	4.332751e-01	9.879782e-01	-1.388175e-04	9.999043e-01	9.388162e-05	9.999092e-01	8.989304e-05	9.999075e-01	9.504435e-05	
55	3.486923e-10	1.000000e+00	2.747935e-03	9.857773e-01	5.235928e-02	6.913275e-01	8.595027e-01	-2.227632e-03	9.998640e-01	9.349693e-05	9.999092e-01	8.988720e-05	9.999075e-01	9.471836e-05	
56	3.574351e-10	1.000000e+00	1.254625e-03	9.936754e-01	2.322475e-02	8.504102e-01	5.829741e-01	1.017761e-02	1.000093e+00	9.539328e-05	9.999092e-01	8.989235e-05	9.999075e-01	9.621566e-05	
57	3.659315e-10	1.000000e+00	6.375938e-04	9.970784e-01	1.110618e-02	9.272247e-01	3.041230e-01	1.234681e-01	1.002180e+00	1.146530e-04	9.999095e-01	8.989122e-05	9.999075e-01	1.125654e-04	
58	3.750725e-10	1.000000e+00	3.085398e-04	9.987263e-01	4.990471e-03	9.677799e-01	1.258928e-01	3.965413e-01	9.926740e-01	3.515221e-05	9.999085e-01	8.988392e-05	9.999075e-01	5.010658e-05	
59	3.841904e-10	1.000000e+00	1.950532e-04	9.993943e-01	2.339623e-03	9.861011e-01	5.354104e-02	6.759107e-01	8.891998e-01	-8.934291e-04	9.998954e-01	8.972926e-05	9.999075e-01	-7.424511e-04	
60	3.941904e-10	1.000000e+00	1.191257e-04	9.997157e-01	1.018867e-03	9.945157e-01	2.117537e-02	8.604388e-01	6.176535e-01	3.857539e-03	9.999577e-01	9.043689e-05	9.999075e-01	3.081278e-03	
61	4.032031e-10	1.000000e+00	1.119084e-04	9.998175e-01	4.816051e-04	9.976248e-01	9.588933e-03	9.359534e-01	3.557750e-01	6.279875e-02	1.000792e+00	9.999865e-05	9.999076e-01	5.319325e-02	
62	4.130971e-10	1.000000e+00	8.950896e-05	9.998778e-01	2.806700e-04	9.989876e-01	4.133545e-03	9.732887e-01	1.739470e-01	2.463054e-01	1.001888e+00	1.124734e-04	9.999078e-01	2.196426e-01	
63	4.230971e-10	1.000000e+00	9.678884e-05	9.998927e-01	1.264019e-04	9.995686e-01	1.701698e-03	9.891327e-01	8.223657e-02	4.793756e-01	9.778372e-01	-1.708990e-04	9.999044e-01	4.454932e-01	
64	4.330971e-10	1.000000e+00	8.537804e-05	9.999062e-01	1.447211e-04	9.997582e-01	8.199318e-04	9.950500e-01	3.729353e-02	6.546189e-01	8.721886e-01	-1.259848e-03	9.998900e-01	6.253327e-01	
65	4.430971e-10	1.000000e+00	9.356599e-05	9.999055e-01	6.961152e-05	9.998615e-01	3.143709e-04	9.980099e-01	1.776411e-02	7.651166e-01	6.746644e-01	2.270335e-03	9.999308e-01	7.423889e-01	
66	4.516120e-10	1.000000e+00	8.564739e-05	9.999100e-01	1.226578e-04	9.998779e-01	2.785811e-04	9.988036e-01	1.025953e-02	8.311302e-01	4.783033e-01	3.255486e-02	1.000317e+00	8.149161e-01	
67	4.606311e-10	1.000000e+00	9.226687e-05	9.999080e-01	6.408417e-05	9.999018e-01	1.005531e-04	9.995225e-01	6.134888e-03	8.852318e-01	2.977676e-01	1.407438e-01	1.001623e+00	8.752871e-01	
68	4.706311e-10	1.000000e+00	8.630084e-05	9.999103e-01	1.155273e-04	9.999022e-01	1.640048e-04	9.996246e-01	3.916054e-03	9.277583e-01	1.650574e-01	3.508940e-01	9.973157e-01	9.218277e-01	
69	4.801658e-10	1.000000e+00	9.151903e-05	9.999087e-01	6.600876e-05	9.999092e-01	5.614247e-05	9.998657e-01	2.400439e-03	9.539716e-01	9.332711e-02	5.649447e-01	9.536645e-01	9.504826e-01	
70	4.868935e-10	1.000000e+00	8.700403e-05	9.999101e-01	1.102186e-04	9.999077e-01	1.353941e-04	9.997929e-01	1.955884e-03	9.667705e-01	6.192712e-02	6.886033e-01	8.722161e-01	9.642344e-01	
71	4.938391e-10	1.000000e+00	9.078726e-05	9.999091e-01	7.111168e-05	9.999091e-01	5.837897e-05	9.999022e-01	1.283152e-03	9.762867e-01	4.071646e-02	7.839621e-01	7.407199e-01	9.745647e-01	
72	5.022522e-10	1.000000e+00	8.754969e-05	9.999100e-01	1.055167e-04	9.999095e-01	1.219834e-04	9.998497e-01	1.047893e-03	9.843387e-01	2.442517e-02	8.632697e-01	5.553334e-01	9.832073e-01	
73	5.101446e-10	1.000000e+00	9.034765e-05	9.999092e-01	7.496523e-05	9.999090e-01	6.319254e-05	9.999162e-01	6.084445e-04	9.894464e-01	1.530844e-02	9.122984e-01	3.972196e-01	9.887000e-01	
74	5.198089e-10	1.000000e+00	8.790607e-05	9.999099e-01	1.020848e-04	9.999101e-01	1.141124e-04	9.998761e-01	5.429571e-04	9.934601e-01	8.624948e-03	9.503671e-01	2.573652e-01	9.930053e-01	
75	5.298089e-10	1.000000e+00	9.007115e-05	9.999093e-01	7.767666e-05	9.999089e-01	6.764498e-05	9.999209e-01	2.513608e-04	9.960794e-01	4.806640e-03	9.723560e-01	1.597507e-01	9.958049e-01	
76	5.398089e-10	1.000000e+00	8.814576e-05	9.999098e-01	9.962504e-05	9.999102e-01	1.090408e-04	9.998892e-01	2.968296e-04	9.975744e-01	2.686783e-03	9.844848e-01	9.383874e-02	9.974184e-01	
77	5.498089e-10	1.000000e+00	8.985800e-05	9.999094e-01	7.990472e-05	9.999089e-01	7.172485e-05	9.999204e-01	1.163438e-04	9.985570e-01	1.521388e-03	9.912357e-01	5.419091e-02	9.984542e-01	
78	5.598089e-10	1.000000e+00	8.833487e-05	9.999098e-01	9.759983e-05	9.999102e-01	1.050599e-04	9.998962e-01	1.980961e-04	9.990614e-01	8.860198e-04	9.949853e-01	3.066123e-02	9.990122e-01	
79	5.698089e-10	1.000000e+00	8.968998e-05	9.999094e-01	8.173421e-05	9.999089e-01	7.516480e-05	9.999185e-01	7.139634e-05	9.994442e-01	5.256162e-04	9.971668e-01	1.713270e-02	9.994013e-01	
80	5.798089e-10	1.000000e+00	8.848413e-05	9.999097e-01	9.594878e-05	9.999102e-01	1.018644e-04	9.999004e-01	1.567124e-04	9.995940e-01	3.396233e-04	9.983158e-01	9.488165e-03	9.995826e-01	
81	5.898089e-10	1.000000e+00	8.955732e-05	9.999094e-01	8.322030e-05	9.999090e-01	7.798277e-05	9.999166e-01	5.962872e-05	9.997574e-01	2.215331e-04	9.990563e-01	5.256399e-03	9.997355e-01	
82	5.998089e-10	1.000000e+00	8.860205e-05	9.999097e-01	9.461294e-05	9.999101e-01	9.929816e-05	9.999030e-01	1.374278e-04	9.997844e-01	1.716291e-04	9.993848e-01	2.894129e-03	9.997862e-01	
83	6.098089e-10	1.000000e+00	8.945247e-05	9.999095e-01	8.441929e-05	9.999091e-01	8.026274e-05	9.999149e-01	5.936813e-05	9.998661e-01	1.277670e-04	9.996567e-01	1.633026e-03	9.998519e-01	
84	6.198089e-10	1.000000e+00	8.869529e-05	9.999097e-01	9.353791e-05	9.999101e-01	9.724235e-05	9.999048e-01	1.268674e-04	9.998532e-01	1.189411e-04	9.997288e-01	9.117706e-04	9.998593e-01	
85	6.298089e-10	1.000000e+00	8.936954e-05	9.999095e-01	8.538228e-05	9.999091e-01	8.209446e-05	9.999136e-01	6.264838e-05	9.999025e-01	9.883362e-05	9.998440e-01	5.523527e-04	9.998916e-01	
86	6.398089e-10	1.000000e+00	8.876907e-05	9.999097e-01	9.267597e-05	9.999100e-01	9.559920e-05	9.999061e-01	1.200208e-04	9.998790e-01	1.019055e-04	9.998406e-01	3.265468e-04	9.998861e-01	
87	6.498089e-10	1.000000e+00	8.930390e-05	9.999095e-01	8.615349e-05	9.999092e-01	8.355918e-05	9.999126e-01	6.665752e-05	9.999138e-01	9.015602e-05	9.999000e-01	2.328942e-04	9.999045e-01	
88	6.598089e-10	1.000000e+00	8.882748e-05	9.999096e-01	9.198659e-05	9.999099e-01	9.428839e-05	9.999070e-01	1.149916e-04	9.998895e-01	9.605429e-05	9.998782e-01	1.559526e-04	9.998963e-01	
89	6.698089e-10	1.000000e+00	8.925191e-05	9.999095e-01	8.676965e-05	9.999092e-01	8.472776e-05	9.999118e-01	7.046542e-05	9.999164e-01	8.784306e-05	9.999151e-01	1.383223e-04	9.999083e-01	
90	6.798089e-10	1.000000e+00	8.887376e-05	9.999096e-01	9.143606e-05	9.999099e-01	9.324477e-05	9.999077e-01	1.110271e-04	9.998944e-01	9.377791e-05	9.998921e-01	1.070545e-04	9.999005e-01	
91	6.898089e-10	1.000000e+00	8.921071e-05	9.999095e-01	8.726133e-05	9.999093e-01	8.565826e-05	9.999112e-01	7.381391e-05	9.999162e-01	8.750221e-05	9.999178e-01	1.098532e-04	9.999090e-01	
92	6.998089e-10	1.000000e+00	8.891043e-05	9.999096e-01	9.099696e-05	9.999098e-01	9.241469e-05	9.999081e-01	1.077948e-04	9.998971e-01	9.268830e-05	9.998980e-01	9.356939e-05	9.999025e-01	
93	7.098089e-10	1.000000e+00	8.917806e-05	9.999095e-01	8.765335e-05	9.999093e-01	8.639821e-05	9.999108e-01	7.667311e-05	9.999152e-01	8.773314e-05	9.999170e-01	1.008574e-04	9.999089e-01	
94	7.198089e-10	1.000000e+00	8.893951e-05	9.999096e-01	9.064696e-05	9.999098e-01	9.175500e-05	9.999085e-01	1.051202e-04	9.998990e-01	9.203127e-05	9.999013e-01	9.026531e-05	9.999036e-01	
95	7.298089e-10	1.000000e+00	8.915217e-05	9.999095e-01	8.796576e-05	9.999094e-01	8.698613e-05	9.999105e-01	7.908506e-05	9.999140e-01	8.809098e-05	9.999156e-01	9.767588e-05	9.999084e-01	
96	7.398089e-10	1.000000e+00	8.896256e-05	9.999096e-01	9.036809e-05	9.999098e-01	9.123105e-05	9.999088e-01	1.028936e-04	9.999003e-01	9.156439e-05	9.999033e-01	8.980607e-05	9.999043e-01	
97	7.498089e-10	1.000000e+00	8.913163e-05	9.999095e-01	8.821465e-05	9.999094e-01	8.745297e-05	9.999103e-01	8.110911e-05	9.999129e-01	8.843881e-05	9.999142e-01	9.629741e-05	9.999080e-01	
98	7.598089e-10	1.000000e+00	8.898086e-05	9.999096e-01	9.014591e-05	9.999097e-01	9.081512e-05	9.999090e-01	1.010356e-04	9.999015e-01	9.120499e-05	9.999048e-01	9.007844e-05	9.999048e-01	
99	7.698089e-10	1.000000e+00	8.911534e-05	9.999096e-01	8.841295e-05	9.999094e-01	8.782351e-05	9.999101e-01	8.280368e-05	9.999119e-01	8.873949e-05	9.999131e-01	9.553043e-05	9.999077e-01	
100	7.798089e-10	1.000000e+00	8.899537e-05	9.999096e-01	8.996889e-05	9.999097e-01	9.048506e-05	9.999091e-01	9.948377e-05	9.999024e-01	9.092020e-05	9.999058e-01	9.048707e-05	9.999051e-01	
101	7.898089e-10	1.000000e+00	8.910241e-05	9.999096e-01	8.857097e-05	9.999094e-01	8.811753e-05	9.999100e-01	8.422087e-05	9.999111e-01	8.898798e-05	9.999122e-01	9.500996e-05	9.999074e-01	
102	7.998089e-10	1.000000e+00	8.900689e-05	9.999096e-01	8.982781e-05	9.999097e-01	9.022320e-05	9.999092e-01	9.818732e-05	9.999031e-01	9.069303e-05	9.999066e-01	9.087440e-05	9.999054e-01	
103	8.098089e-10	1.000000e+00	8.909215e-05	9.999096e-01	8.869692e-05	9.999095e-01	8.835076e-05	9.999099e-01	8.540548e-05	9.999104e-01	8.918902e-05	9.999115e-01	9.461575e-05	9.999072e-01	
104	8.198089e-10	1.000000e+00	8.901603e-05	9.999096e-01	8.971534e-05	9.999097e-01	9.001551e-05	9.999093e-01	9.710414e-05	9.999037e-01	9.051207e-05	9.999072e-01	9.120682e-05	9.999056e-01	
105	8.298089e-10	1.000000e+00	8.908400e-05	9.999096e-01	8.879737e-05	9.999095e-01	8.853573e-05	9.999098e-01	8.639542e-05	9.999099e-01	8.934978e-05	9.999109e-01	9.430197e-05	9.999070e-01	
106	8.398089e-10	1.000000e+00	8.902329e-05	9.999096e-01	8.962561e-05	9.999097e-01	8.985080e-05	9.999094e-01	9.619916e-05	9.999043e-01	9.036847e-05	9.999077e-01	9.148405e-05	9.999057e-01	
107	8.498089e-10	1.000000e+00	8.907753e-05	9.999096e-01	8.887752e-05	9.999095e-01	8.868240e-05	9.999097e-01	8.722258e-05	9.999094e-01	8.947738e-05	9.999105e-01	9.404686e-05	9.999068e-01	
108	8.598089e-10	1.000000e+00	8.902905e-05	9.999096e-01	8.955398e-05	9.999097e-01	8.972022e-05	9.999094e-01	9.544306e-05	9.999047e-01	9.025499e-05	9.999081e-01	9.171348e-05	9.999059e-01	
109	8.698089e-10	1.000000e+00	8.907240e-05	9.999096e-01	8.894154e-05	9.999095e-01	8.879868e-05	9.999097e-01	8.791369e-05	9.999090e-01	8.957810e-05	9.999102e-01	9.383747e-05	9.999067e-01	
110	8.798089e-10	1.000000e+00	8.903363e-05	9.999096e-01	8.949674e-05	9.999097e-01	8.961671e-05	9.999095e-01	9.481135e-05	9.999051e-01	9.016566e-05	9.999083e-01	9.190314e-05	9.999059e-01	
111	8.898089e-10	1.000000e+00	8.906832e-05	9.999096e-01	8.899272e-05	9.999095e-01	8.889084e-05	9.999097e-01	8.849112e-05	9.999087e-01	8.965726e-05	9.999100e-01	9.366478e-05	9.999067e-01	
112	8.998089e-10	1.000000e+00	8.903726e-05	9.999096e-01	8.945095e-05	9.999096e-01	8.953468e-05	9.999095e-01	9.428355e-05	9.999054e-01	9.009561e-05	9.999085e-01	9.206003e-05	9.999060e-01	
113	9.098089e-10	1.000000e+00	8.906508e-05	9.999096e-01	8.903369e-05	9.999095e-01	8.896388e-05	9.999097e-01	8.897359e-05	9.999084e-01	8.971926e-05	9.999098e-01	9.352197e-05	9.999066e-01	
114	9.198089e-10	1.000000e+00	8.904015e-05	9.999096e-01	8.941428e-05	9.999096e-01	8.946968e-05	9.999095e-01	9.384255e-05	9.999056e-01	9.004086e-05	9.999087e-01	9.218998e-05	9.999061e-01	
115	9.298089e-10	1.000000e+00	8.906250e-05	9.999096e-01	8.906653e-05	9.999095e-01	8.902174e-05	9.999096e-01	8.937673e-05	9.999082e-01	8.976763e-05	9.999097e-01	9.340367e-05	9.999065e-01	
116	9.398089e-10	1.000000e+00	8.904245e-05	9.999096e-01	8.938486e-05	9.999096e-01	8.941820e-05	9.999095e-01	9.347405e-05	9.999058e-01	8.999821e-05	9.999088e-01	9.229771e-05	9.999061e-01	
117	9.498089e-10	1.000000e+00	8.906046e-05	9.999096e-01	8.909290e-05	9.999095e-01	8.906756e-05	9.999096e-01	8.971361e-05	9.999080e-01	8.980525e-05	9.999096e-01	9.330557e-05	9.999065e-01	
118	9.598089e-10	1.000000e+00	8.904427e-05	9.999096e-01	8.936121e-05	9.999096e-01	8.937744e-05	9.999095e-01	9.316609e-05	9.999060e-01	8.996512e-05	9.999089e-01	9.238710e-05	9.999062e-01	
119	9.698089e-10	1.000000e+00	8.905883e-05	9.999096e-01	8.911412e-05	9.999095e-01	8.910384e-05	9.999096e-01	8.999517e-05	9.999078e-01	8.983440e-05	9.999095e-01	9.322416e-05	9.999065e-01	
120	9.798089e-10	1.000000e+00	8.904573e-05	9.999096e-01	8.934215e-05	9.999096e-01	8.934518e-05	9.999095e-01	9.290870e-05	9.999061e-01	8.993953e-05	9.999090e-01	9.246131e-05	9.999062e-01	
121	9.898089e-10	1.000000e+00	8.905753e-05	9.999096e-01	8.913124e-05	9.999095e-01	8.913255e-05	9.999096e-01	9.023051e-05	9.999077e-01	8.985689e-05	9.999095e-01	9.315658e-05	9.999065e-01	
122	9.998089e-10	1.000000e+00	8.904688e-05	9.999096e-01	8.932676e-05	9.999096e-01	8.931966e-05	9.999095e-01	9.269354e-05	9.999063e-01	8.991983e-05	9.999090e-01	9.252292e-05	9.999062e-01	
123	1.009809e-09	1.000000e+00	8.905650e-05	9.999096e-01	8.914509e-05	9.999095e-01	8.915525e-05	9.999096e-01	9.042726e-05	9.999076e-01	8.987417e-05	9.999094e-01	9.310047e-05	9.999064e-01	
124	1.019809e-09	1.000000e+00	8.904780e-05	9.999096e-01	8.931429e-05	9.999096e-01	8.929948e-05	9.999096e-01	9.251365e-05	9.999064e-01	8.990474e-05	9.999091e-01	9.257408e-05	9.999062e-01	
125	1.029809e-09	1.000000e+00	8.905568e-05	9.999096e-01	8.915633e-05	9.999095e-01	8.917320e-05	9.999096e-01	9.059179e-05	9.999075e-01	8.988737e-05	9.999094e-01	9.305389e-05	9.999064e-01	
126	1.039809e-09	1.000000e+00	8.904854e-05	9.999096e-01	8.930415e-05	9.999096e-01	8.928354e-05	9.999096e-01	9.236320e-05	9.999064e-01	8.989326e-05	9.999091e-01	9.261656e-05	9.999062e-01	
127	1.049809e-09	1.000000e+00	8.905502e-05	9.999096e-01	8.916548e-05	9.999095e-01	8.918737e-05	9.999096e-01	9.072941e-05	9.999074e-01	8.989738e-05	9.999093e-01	9.301522e-05	9.999064e-01	
128	1.059809e-09	1.000000e+00	8.904912e-05	9.999096e-01	8.929587e-05	9.999096e-01	8.927096e-05	9.999096e-01	9.223734e-05	9.999065e-01	8.988460e-05	9.999091e-01	9.265181e-05	9.999062e-01	
129	1.069809e-09	1.000000e+00	8.905450e-05	9.999096e-01	8.917298e-05	9.999095e-01	8.919856e-05	9.999096e-01	9.084455e-05	9.999073e-01	8.990490e-05	9.999093e-01	9.298315e-05	9.999064e-01	
130	1.079809e-09	1.000000e+00	8.904959e-05	9.999096e-01	8.928908e-05	9.999096e-01	8.926103e-05	9.999096e-01	9.213202e-05	9.999066e-01	8.987812e-05	9.999091e-01	9.268106e-05	9.999062e-01	
131	1.089809e-09	1.000000e+00	8.905408e-05	9.999096e-01	8.917914e-05	9.999095e-01	8.920738e-05	9.999096e-01	9.094093e-05	9.999073e-01	8.991050e-05	9.999093e-01	9.295656e-05	9.999064e-01	
132	1.099809e-09	1.000000e+00	8.904996e-05	9.999096e-01	8.928348e-05	9.999096e-01	8.925322e-05	9.999096e-01	9.204384e-05	9.999066e-01	8.987334e-05	9.999091e-01	9.270530e-05	9.999062e-01	
133	1.109809e-09	1.000000e+00	8.905375e-05	9.999096e-01	8.918424e-05	9.999095e-01	8.921432e-05	9.999096e-01	9.102164e-05	9.999072e-01	8.991460e-05	9.999093e-01	9.293454e-05	9.999064e-01	
134	1.119809e-09	1.000000e+00	8.905026e-05	9.999096e-01	8.927883e-05	9.999096e-01	8.924707e-05	9.999096e-01	9.196999e-05	9.999067e-01	8.986988e-05	9.999092e-01	9.272537e-05	9.999062e-01	
135	1.129809e-09	1.000000e+00	8.905348e-05	9.999096e-01	8.918848e-05	9.999095e-01	8.921978e-05	9.999096e-01	9.108926e-05	9.999072e-01	8.991753e-05	9.999093e-01	9.291632e-05	9.999064e-01	
136	1.139809e-09	1.000000e+00	8.905050e-05	9.999096e-01	8.927495e-05	9.999096e-01	8.924225e-05	9.999096e-01	9.190809e-05	9.999067e-01	8.986744e-05	9.999092e-01	9.274197e-05	9.999063e-01	
137	1.149809e-09	1.000000e+00	8.905326e-05	9.999096e-01	8.919203e-05	9.999095e-01	8.922406e-05	9.999096e-01	9.114596e-05	9.999072e-01	8.991958e-05	9.999093e-01	9.290127e-05	9.999064e-01	
138	1.159809e-09	1.000000e+00	8.905070e-05	9.999096e-01	8.927168e-05	9.999096e-01	8.923847e-05	9.999096e-01	9.185618e-05	9.999067e-01	8.986578e-05	9.999092e-01	9.275567e-05	9.999063e-01	
139	1.169809e-09	1.000000e+00	8.905309e-05	9.999096e-01	8.919504e-05	9.999095e-01	8.922741e-05	9.999096e-01	9.119352e-05	9.999072e-01	8.992093e-05	9.999093e-01	9.288885e-05	9.999064e-01	
140	1.179809e-09	1.000000e+00	8.905086e-05	9.999096e-01	8.926891e-05	9.999096e-01	8.923552e-05	9.999096e-01	9.181261e-05	9.999067e-01	8.986473e-05	9.999092e-01	9.276697e-05	9.999063e-01	
141	1.189809e-09	1.000000e+00	8.905295e-05	9.999096e-01	8.919760e-05	9.999095e-01	8.923003e-05	9.999096e-01	9.123347e-05	9.999071e-01	8.992177e-05	9.999093e-01	9.287864e-05	9.999064e-01	
142	1.199809e-09	1.000000e+00	8.905098e-05	9.999096e-01	8.926655e-05	9.999096e-01	8.923321e-05	9.999096e-01	9.177600e-05	9.999068e-01	8.986413e-05	9.999092e-01	9.277625e-05	9.999063e-01	
143	1.209809e-09	1.000000e+00	8.905283e-05	9.999096e-01	8.919979e-05	9.999095e-01	8.923206e-05	9.999096e-01	9.126705e-05	9.999071e-01	8.992220e-05	9.999093e-01	9.287027e-05	9.999064e-01	
144	1.219809e-09	1.000000e+00	8.905109e-05	9.999096e-01	8.926451e-05	9.999096e-01	8.923143e-05	9.999096e-01	9.174521e-05	9.999068e-01	8.986387e-05	9.999092e-01	9.278386e-05	9.999063e-01	
145	1.229809e-09	1.000000e+00	8.905274e-05	9.999096e-01	8.920169e-05	9.999095e-01	8.923364e-05	9.999096e-01	9.129531e-05	9.999071e-01	8.992233e-05	9.999093e-01	9.286342e-05	9.999064e-01	
146	1.239809e-09	1.000000e+00	8.905117e-05	9.999096e-01	8.926273e-05	9.999096e-01	8.923005e-05	9.999096e-01	9.171928e-05	9.999068e-01	8.986388e-05	9.999092e-01	9.279008e-05	9.999063e-01	
147	1.249809e-09	1.000000e+00	8.905266e-05	9.999096e-01	8.920335e-05	9.999095e-01	8.923486e-05	9.999096e-01	9.131913e-05	9.999071e-01	8.992224e-05	9.999093e-01	9.285785e-05	9.999064e-01	
148	1.259809e-09	1.000000e+00	8.905124e-05	9.999096e-01	8.926117e-05	9.999096e-01	8.922899e-05	9.999096e-01	9.169741e-05	9.999068e-01	8.986408e-05	9.999092e-01	9.279513e-05	9.999063e-01	
149	1.269809e-09	1.000000e+00	8.905260e-05	9.999096e-01	8.920482e-05	9.999095e-01	8.923580e-05	9.999096e-01	9.133924e-05	9.999071e-01	8.992198e-05	9.999093e-01	9.285334e-05	9.999064e-01	
150	1.279809e-09	1.000000e+00	8.905130e-05	9.999096e-01	8.925979e-05	9.999096e-01	8.922818e-05	9.999096e-01	9.167893e-05	9.999068e-01	8.986442e-05	9.999092e-01	9.279921e-05	9.999063e-01	
151	1.289809e-09	1.000000e+00	8.905255e-05	9.999096e-01	8.920612e-05	9.999096e-01	8.923651e-05	9.999096e-01	9.135625e-05	9.999071e-01	8.992160e-05	9.999093e-01	9.284971e-05	9.999064e-01	
152	1.299809e-09	1.000000e+00	8.905135e-05	9.999096e-01	8.925855e-05	9.999096e-01	8.922757e-05	9.999096e-01	9.166329e-05	9.999068e-01	8.986486e-05	9.999092e-01	9.280248e-05	9.999063e-01	
153	1.309809e-09	1.000000e+00	8.905250e-05	9.999096e-01	8.920729e-05	9.999096e-01	8.923705e-05	9.999096e-01	9.137066e-05	9.999071e-01	8.992113e-05	9.999093e-01	9.284682e-05	9.999064e-01	
154	1.319809e-09	1.000000e+00	8.905139e-05	9.999096e-01	8.925744e-05	9.999096e-01	8.922711e-05	9.999096e-01	9.165001e-05	9.999068e-01	8.986538e-05	9.999092e-01	9.280507e-05	9.999063e-01	
155	1.329809e-09	1.000000e+00	8.905247e-05	9.999096e-01	8.920835e-05	9.999096e-01	8.923745e-05	9.999096e-01	9.138291e-05	9.999070e-01	8.992061e-05	9.999093e-01	9.284455e-05	9.999064e-01	
156	1.339809e-09	1.000000e+00	8.905142e-05	9.999096e-01	8.925643e-05	9.999096e-01	8.922677e-05	9.999096e-01	9.163872e-05	9.999068e-01	8.986593e-05	9.999092e-01	9.280711e-05	9.999063e-01	
157	1.349809e-09	1.000000e+00	8.905243e-05	9.999096e-01	8.920932e-05	9.999096e-01	8.923775e-05	9.999096e-01	9.139336e-05	9.999070e-01	8.992005e-05	9.999093e-01	9.284278e-05	9.999064e-01	
158	1.359809e-09	1.000000e+00	8.905145e-05	9.999096e-01	8.925551e-05	9.999096e-01	8.922653e-05	9.999096e-01	9.162908e-05	9.999068e-01	8.986652e-05	9.999092e-01	9.280867e-05	9.999063e-01	
159	1.369809e-09	1.000000e+00	8.905241e-05	9.999096e-01	8.921020e-05	9.999096e-01	8.923796e-05	9.999096e-01	9.140228e-05	9.999070e-01	8.991947e-05	9.999093e-01	9.284145e-05	9.999064e-01	
160	1.379809e-09	1.000000e+00	8.905148e-05	9.999096e-01	8.925466e-05	9.999096e-01	8.922636e-05	9.999096e-01	9.162082e-05	9.999069e-01	8.986712e-05	9.999092e-01	9.280985e-05	9.999063e-01	
161	1.389809e-09	1.000000e+00	8.905238e-05	9.999096e-01	8.921102e-05	9.999096e-01	8.923811e-05	9.999096e-01	9.140994e-05	9.999070e-01	8.991888e-05	9.999093e-01	9.284047e-05	9.999064e-01	
162	1.399809e-09	1.000000e+00	8.905150e-05	9.999096e-01	8.925387e-05	9.999096e-01	8.922625e-05	9.999096e-01	9.161372e-05	9.999069e-01	8.986773e-05	9.999092e-01	9.281071e-05	9.999063e-01	
163	1.409809e-09	1.000000e+00	8.905236e-05	9.999096e-01	8.921178e-05	9.999096e-01	8.923821e-05	9.999096e-01	9.141654e-05	9.999070e-01	8.991829e-05	9.999092e-01	9.283978e-05	9.999064e-01	
164	1.419809e-09	1.000000e+00	8.905152e-05	9.999096e-01	8.925313e-05	9.999096e-01	8.922617e-05	9.999096e-01	9.160759e-05	9.999069e-01	8.986833e-05	9.999092e-01	9.281129e-05	9.999063e-01	
165	1.429809e-09	1.000000e+00	8.905234e-05	9.999096e-01	8.921249e-05	9.999096e-01	8.923827e-05	9.999096e-01	9.142226e-05	9.999070e-01	8.991771e-05	9.999092e-01	9.283933e-05	9.999064e-01	
166	1.439809e-09	1.000000e+00	8.905154e-05	9.999096e-01	8.925245e-05	9.999096e-01	8.922613e-05	9.999096e-01	9.160228e-05	9.999069e-01	8.986893e-05	9.999092e-01	9.281166e-05	9.999063e-01	
167	1.449809e-09	1.000000e+00	8.905232e-05	9.999096e-01	8.921315e-05	9.999096e-01	8.923831e-05	9.999096e-01	9.142723e-05	9.999070e-01	8.991713e-05	9.999092e-01	9.283909e-05	9.999064e-01	
168	1.459809e-09	1.000000e+00	8.905155e-05	9.999096e-01	8.925180e-05	9.999096e-01	8.922612e-05	9.999096e-01	9.159764e-05	9.999069e-01	8.986951e-05	9.999092e-01	9.281183e-05	9.999063e-01	
169	1.469809e-09	1.000000e+00	8.905231e-05	9.999096e-01	8.921378e-05	9.999096e-01	8.923832e-05	9.999096e-01	9.143157e-05	9.999070e-01	8.991657e-05	9.999092e-01	9.283902e-05	9.999064e-01	
170	1.479809e-09	1.000000e+00	8.905157e-05	9.999096e-01	8.925119e-05	9.999096e-01	8.922612e-05	9.999096e-01	9.159358e-05	9.999069e-01	8.987008e-05	9.999092e-01	9.281186e-05	9.999063e-01	
171	1.489809e-09	1.000000e+00	8.905230e-05	9.999096e-01	8.921437e-05	9.999096e-01	8.923832e-05	9.999096e-01	9.143539e-05	9.999070e-01	8.991603e-05	9.999092e-01	9.283908e-05	9.999064e-01	
172	1.499809e-09	1.000000e+00	8.905158e-05	9.999096e-01	8.925061e-05	9.999096e-01	8.922614e-05	9.999096e-01	9.158999e-05	9.999069e-01	8.987063e-05	9.999092e-01	9.281176e-05	9.999063e-01	
173	1.509809e-09	1.000000e+00	8.905228e-05	9.999096e-01	8.921494e-05	9.999096e-01	8.923831e-05	9.999096e-01	9.143878e-05	9.999070e-01	8.991550e-05	9.999092e-01	9.283926e-05	9.999064e-01	
174	1.519809e-09	1.000000e+00	8.905159e-05	9.999096e-01	8.925007e-05	9.999096e-01	8.922616e-05	9.999096e-01	9.158680e-05	9.999069e-01	8.987116e-05	9.999092e-01	9.281156e-05	9.999063e-01	
175	1.529809e-09	1.000000e+00	8.905227e-05	9.999096e-01	8.921547e-05	9.999096e-01	8.923829e-05	9.999096e-01	9.144179e-05	9.999070e-01	8.991499e-05	9.999092e-01	9.283953e-05	9.999064e-01	
176	1.539809e-09	1.000000e+00	8.905161e-05	9.999096e-01	8.924954e-05	9.999096e-01	8.922619e-05	9.999096e-01	9.158396e-05	9.999069e-01	8.987167e-05	9.999092e-01	9.281127e-05	9.999063e-01	
177	1.549809e-09	1.000000e+00	8.905226e-05	9.999096e-01	8.921598e-05	9.999096e-01	8.923826e-05	9.999096e-01	9.144450e-05	9.999070e-01	8.991450e-05	9.999092e-01	9.283987e-05	9.999064e-01	
178	1.559809e-09	1.000000e+00	8.905162e-05	9.999096e-01	8.924905e-05	9.999096e-01	8.922622e-05	9.999096e-01	9.158140e-05	9.999069e-01	8.987217e-05	9.999092e-01	9.281092e-05	9.999063e-01	
179	1.569809e-09	1.000000e+00	8.905225e-05	9.999096e-01	8.921646e-05	9.999096e-01	8.923824e-05	9.999096e-01	9.144694e-05	9.999070e-01	8.991403e-05	9.999092e-01	9.284028e-05	9.999064e-01	
180	1.579809e-09	1.000000e+00	8.905163e-05	9.999096e-01	8.924857e-05	9.999096e-01	8.922626e-05	9.999096e-01	9.157908e-05	9.999069e-01	8.987264e-05	9.999092e-01	9.281051e-05	9.999063e-01	
181	1.589809e-09	1.000000e+00	8.905224e-05	9.999096e-01	8.921693e-05	9.999096e-01	8.923821e-05	9.999096e-01	9.144916e-05	9.999070e-01	8.991358e-05	9.999092e-01	9.284073e-05	9.999064e-01	
182	1.599809e-09	1.000000e+00	8.905164e-05	9.999096e-01	8.924812e-05	9.999096e-01	8.922630e-05	9.999096e-01	9.157696e-05	9.999069e-01	8.987309e-05	9.999092e-01	9.281006e-05	9.999063e-01	
183	1.609809e-09	1.000000e+00	8.905223e-05	9.999096e-01	8.921737e-05	9.999096e-01	8.923818e-05	9.999096e-01	9.145119e-05	9.999070e-01	8.991315e-05	9.999092e-01	9.284122e-05	9.999064e-01	
184	1.619809e-09	1.000000e+00	8.905165e-05	9.999096e-01	8.924769e-05	9.999096e-01	8.922633e-05	9.999096e-01	9.157502e-05	9.999069e-01	8.987353e-05	9.999092e-01	9.280957e-05	9.999063e-01	
185	1.629809e-09	1.000000e+00	8.905222e-05	9.999096e-01	8.921779e-05	9.999096e-01	8.923815e-05	9.999096e-01	9.145307e-05	9.999070e-01	8.991274e-05	9.999092e-01	9.284174e-05	9.999064e-01	
186	1.639809e-09	1.000000e+00	8.905166e-05	9.999096e-01	8.924727e-05	9.999096e-01	8.922637e-05	9.999096e-01	9.157322e-05	9.999069e-01	8.987395e-05	9.999092e-01	9.280905e-05	9.999063e-01	
187	1.649809e-09	1.000000e+00	8.905221e-05	9.999096e-01	8.921820e-05	9.999096e-01	8.923812e-05	9.999096e-01	9.145480e-05	9.999070e-01	8.991235e-05	9.999092e-01	9.284229e-05	9.999064e-01	
188	1.659809e-09	1.000000e+00	8.905166e-05	9.999096e-01	8.924687e-05	9.999096e-01	8.922640e-05	9.999096e-01	9.157155e-05	9.999069e-01	8.987435e-05	9.999092e-01	9.280852e-05	9.999063e-01	
189	1.669809e-09	1.000000e+00	8.905220e-05	9.999096e-01	8.921859e-05	9.999096e-01	8.923810e-05	9.999096e-01	9.145643e-05	9.999070e-01	8.991197e-05	9.999092e-01	9.284285e-05	9.999064e-01	
190	1.679809e-09	1.000000e+00	8.905167e-05	9.999096e-01	8.924649e-05	9.999096e-01	8.922643e-05	9.999096e-01	9.156998e-05	9.999069e-01	8.987473e-05	9.999092e-01	9.280797e-05	9.999063e-01	
191	1.689809e-09	1.000000e+00	8.905219e-05	9.999096e-01	8.921897e-05	9.999096e-01	8.923807e-05	9.999096e-01	9.145795e-05	9.999070e-01	8.991161e-05	9.999092e-01	9.284343e-05	9.999064e-01	
192	1.699809e-09	1.000000e+00	8.905168e-05	9.999096e-01	8.924612e-05	9.999096e-01	8.922646e-05	9.999096e-01	9.156850e-05	9.999069e-01	8.987510e-05	9.999092e-01	9.280741e-05	9.999063e-01	
193	1.709809e-09	1.000000e+00	8.905219e-05	9.999096e-01	8.921933e-05	9.999096e-01	8.923805e-05	9.999096e-01	9.145939e-05	9.999070e-01	8.991126e-05	9.999092e-01	9.284401e-05	9.999064e-01	
194	1.719809e-09	1.000000e+00	8.905169e-05	9.999096e-01	8.924576e-05	9.999096e-01	8.922649e-05	9.999096e-01	9.156711e-05	9.999069e-01	8.987545e-05	9.999092e-01	9.280685e-05	9.999063e-01	
195	1.729809e-09	1.000000e+00	8.905218e-05	9.999096e-01	8.921968e-05	9.999096e-01	8.923803e-05	9.999096e-01	9.146076e-05	9.999070e-01	8.991093e-05	9.999092e-01	9.284459e-05	9.999064e-01	
196	1.739809e-09	1.000000e+00	8.905170e-05	9.999096e-01	8.924542e-05	9.999096e-01	8.922651e-05	9.999096e-01	9.156578e-05	9.999069e-01	8.987578e-05	9.999092e-01	9.280628e-05	9.999063e-01	
197	1.749809e-09	1.000000e+00	8.905217e-05	9.999096e-01	8.922001e-05	9.999096e-01	8.923802e-05	9.999096e-01	9.146206e-05	9.999070e-01	8.991061e-05	9.999092e-01	9.284518e-05	9.999064e-01	
198	1.759809e-09	1.000000e+00	8.905170e-05	9.999096e-01	8.924509e-05	9.999096e-01	8.922653e-05	9.999096e-01	9.156451e-05	9.999069e-01	8.987611e-05	9.999092e-01	9.280571e-05	9.999063e-01	
199	1.769809e-09	1.000000e+00	8.905216e-05	9.999096e-01	8.922033e-05	9.999096e-01	8.923800e-05	9.999096e-01	9.146330e-05	9.999070e-01	8.991031e-05	9.999092e-01	9.284576e-05	9.999064e-01	
200	1.779809e-09	1.000000e+00	8.905171e-05	9.999096e-01	8.924478e-05	9.999096e-01	8.922655e-05	9.999096e-01	9.156330e-05	9.999069e-01	8.987641e-05	9.999092e-01	9.280515e-05	9.999063e-01	
201	1.789809e-09	1.000000e+00	8.905216e-05	9.999096e-01	8.922064e-05	9.999096e-01	8.923799e-05	9.999096e-01	9.146450e-05	9.999070e-01	8.991002e-05	9.999092e-01	9.284635e-05	9.999064e-01	
202	1.799809e-09	1.000000e+00	8.905172e-05	9.999096e-01	8.924447e-05	9.999096e-01	8.922657e-05	9.999096e-01	9.156213e-05	9.999069e-01	8.987671e-05	9.999092e-01	9.280458e-05	9.999063e-01	
203	1.809809e-09	1.000000e+00	8.905215e-05	9.999096e-01	8.922094e-05	9.999096e-01	8.923798e-05	9.999096e-01	9.146565e-05	9.999070e-01	8.990974e-05	9.999092e-01	9.284692e-05	9.999064e-01	
204	1.819809e-09	1.000000e+00	8.905172e-05	9.999096e-01	8.924418e-05	9.999096e-01	8.922658e-05	9.999096e-01	9.156100e-05	9.999069e-01	8.987699e-05	9.999092e-01	9.280403e-05	9.999063e-01	
205	1.829809e-09	1.000000e+00	8.905214e-05	9.999096e-01	8.922123e-05	9.999096e-01	8.923797e-05	9.999096e-01	9.146677e-05	9.999070e-01	8.990948e-05	9.999092e-01	9.284749e-05	9.999064e-01	
206	1.839809e-09	1.000000e+00	8.905173e-05	9.999096e-01	8.924389e-05	9.999096e-01	8.922659e-05	9.999096e-01	9.155991e-05	9.999069e-01	8.987727e-05	9.999092e-01	9.280348e-05	9.999063e-01	
207	1.849809e-09	1.000000e+00	8.905214e-05	9.999096e-01	8.922151e-05	9.999096e-01	8.923797e-05	9.999096e-01	9.146784e-05	9.999070e-01	8.990922e-05	9.999092e-01	9.284805e-05	9.999064e-01	
208	1.859809e-09	1.000000e+00	8.905174e-05	9.999096e-01	8.924362e-05	9.999096e-01	8.922660e-05	9.999096e-01	9.155885e-05	9.999069e-01	8.987753e-05	9.999092e-01	9.280294e-05	9.999063e-01	
209	1.869809e-09	1.000000e+00	8.905213e-05	9.999096e-01	8.922178e-05	9.999096e-01	8.923797e-05	9.999096e-01	9.146889e-05	9.999070e-01	8.990898e-05	9.999092e-01	9.284861e-05	9.999064e-01	
210	1.879809e-09	1.000000e+00	8.905174e-05	9.999096e-01	8.924336e-05	9.999096e-01	8.922661e-05	9.999096e-01	9.155782e-05	9.999069e-01	8.987778e-05	9.999092e-01	9.280241e-05	9.999063e-01	
211	1.889809e-09	1.000000e+00	8.905213e-05	9.999096e-01	8.922204e-05	9.999096e-01	8.923797e-05	9.999096e-01	9.146991e-05	9.999070e-01	8.990875e-05	9.999092e-01	9.284915e-05	9.999064e-01	
212	1.899809e-09	1.000000e+00	8.905175e-05	9.999096e-01	8.924310e-05	9.999096e-01	8.922661e-05	9.999096e-01	9.155682e-05	9.999069e-01	8.987802e-05	9.999092e-01	9.280189e-05	9.999063e-01	
213	1.909809e-09	1.000000e+00	8.905212e-05	9.999096e-01	8.922229e-05	9.999096e-01	8.923797e-05	9.999096e-01	9.147090e-05	9.999070e-01	8.990852e-05	9.999092e-01	9.284968e-05	9.999064e-01	
214	1.919809e-09	1.000000e+00	8.905175e-05	9.999096e-01	8.924286e-05	9.999096e-01	8.922662e-05	9.999096e-01	9.155584e-05	9.999069e-01	8.987825e-05	9.999092e-01	9.280138e-05	9.999063e-01	
215	1.929809e-09	1.000000e+00	8.905211e-05	9.999096e-01	8.922253e-05	9.999096e-01	8.923797e-05	9.999096e-01	9.147187e-05	9.999070e-01	8.990831e-05	9.999092e-01	9.285020e-05	9.999064e-01	
216	1.939809e-09	1.000000e+00	8.905176e-05	9.999096e-01	8.924262e-05	9.999096e-01	8.922662e-05	9.999096e-01	9.155489e-05	9.999069e-01	8.987847e-05	9.999092e-01	9.280088e-05	9.999063e-01	
217	1.949809e-09	1.000000e+00	8.905211e-05	9.999096e-01	8.922276e-05	9.999096e-01	8.923798e-05	9.999096e-01	9.147282e-05	9.999070e-01	8.990811e-05	9.999092e-01	9.285071e-05	9.999064e-01	
218	1.959809e-09	1.000000e+00	8.905176e-05	9.999096e-01	8.924239e-05	9.999096e-01	8.922662e-05	9.999096e-01	9.155395e-05	9.999069e-01	8.987868e-05	9.999092e-01	9.280039e-05	9.999063e-01	
219	1.969809e-09	1.000000e+00	8.905210e-05	9.999096e-01	8.922298e-05	9.999096e-01	8.923798e-05	9.999096e-01	9.147374e-05	9.999070e-01	8.990791e-05	9.999092e-01	9.285121e-05	9.999064e-01	
220	1.979809e-09	1.000000e+00	8.905177e-05	9.999096e-01	8.924217e-05	9.999096e-01	8.922662e-05	9.999096e-01	9.155304e-05	9.999069e-01	8.987889e-05	9.999092e-01	9.279991e-05	9.999063e-01	
221	1.989809e-09	1.000000e+00	8.905210e-05	9.999096e-01	8.922320e-05	9.999096e-01	8.923799e-05	9.999096e-01	9.147465e-05	9.999070e-01	8.990772e-05	9.999092e-01	9.285170e-05	9.999064e-01	
222	1.999809e-09	1.000000e+00	8.905177e-05	9.999096e-01	8.924196e-05	9.999096e-01	8.922661e-05	9.999096e-01	9.155215e-05	9.999069e-01	8.987909e-05	9.999092e-01	9.279945e-05	9.999063e-01	
223	2.000000e-09	1.000000e+00	8.905201e-05	9.999096e-01	8.922714e-05	9.999096e-01	8.923832e-05	9.999096e-01	9.149365e-05	9.999070e-01	8.990427e-05	9.999092e-01	9.286054e-05	9.999063e-01	

                                                                                                                * spice from s2s
                                                                                                                Transient Analysis  Sat Feb  7 10:40:23  2009
------------------------------------------------------------------------------------------------------------------------------------------------------------------------------------------------------------------------------------------------
Index   time            v(n38)          v(n48)          v(n54)          v(n30)          v(n40)          v(n46)          v(n58)          v(n56)          v(n42)          v(n44)          v(n60)          v(n62)          v(n2)           
------------------------------------------------------------------------------------------------------------------------------------------------------------------------------------------------------------------------------------------------
0	0.000000e+00	1.000000e+00	0.000000e+00	1.000000e+00	0.000000e+00	1.000000e+00	0.000000e+00	1.000000e+00	1.000000e+00	1.000000e+00	0.000000e+00	1.000000e+00	1.000000e+00	0.000000e+00	
1	1.000000e-13	1.000576e+00	3.671506e-02	1.001668e+00	7.138620e-03	1.001910e+00	5.658866e-02	1.001064e+00	1.000004e+00	1.001342e+00	4.811195e-02	1.001109e+00	1.001109e+00	3.510792e-02	
2	1.189803e-13	1.000704e+00	4.349508e-02	1.002032e+00	8.760037e-03	1.002325e+00	6.672545e-02	1.001298e+00	1.000005e+00	1.001636e+00	5.680208e-02	1.001353e+00	1.001353e+00	4.167648e-02	
3	1.569409e-13	1.000991e+00	5.669094e-02	1.002836e+00	1.251288e-02	1.003239e+00	8.587030e-02	1.001821e+00	1.000007e+00	1.002294e+00	7.335156e-02	1.001898e+00	1.001898e+00	5.462504e-02	
4	2.328621e-13	1.001728e+00	8.104359e-02	1.004752e+00	2.250642e-02	1.005374e+00	1.182155e-01	1.003119e+00	1.000015e+00	1.003912e+00	1.020211e-01	1.003248e+00	1.003248e+00	7.941430e-02	
5	3.847044e-13	1.003591e+00	1.228416e-01	1.008938e+00	4.712279e-02	1.009819e+00	1.654822e-01	1.006215e+00	1.000050e+00	1.007670e+00	1.459789e-01	1.006458e+00	1.006458e+00	1.248188e-01	
6	6.878812e-13	1.007683e+00	1.858133e-01	1.015811e+00	9.400233e-02	1.016802e+00	2.195412e-01	1.012378e+00	1.000242e+00	1.014794e+00	2.010311e-01	1.012822e+00	1.012822e+00	2.007837e-01	
7	1.004144e-12	1.011415e+00	2.308493e-01	1.019413e+00	1.287056e-01	1.020831e+00	2.458992e-01	1.017251e+00	1.000639e+00	1.020137e+00	2.321855e-01	1.017829e+00	1.017829e+00	2.622153e-01	
8	1.477746e-12	1.015001e+00	2.743311e-01	1.019576e+00	1.573129e-01	1.022870e+00	2.625849e-01	1.020949e+00	1.001539e+00	1.024056e+00	2.563094e-01	1.021628e+00	1.021628e+00	3.281521e-01	
9	2.058013e-12	1.016631e+00	3.030846e-01	1.016178e+00	1.717213e-01	1.022234e+00	2.654221e-01	1.021494e+00	1.002869e+00	1.024602e+00	2.667682e-01	1.022285e+00	1.022285e+00	3.776147e-01	
10	2.873534e-12	1.016037e+00	3.184244e-01	1.011073e+00	1.764379e-01	1.019522e+00	2.566265e-01	1.019065e+00	1.004590e+00	1.022031e+00	2.655915e-01	1.020155e+00	1.020155e+00	4.097146e-01	
11	3.732171e-12	1.013995e+00	3.178427e-01	1.007305e+00	1.739783e-01	1.016389e+00	2.417262e-01	1.015483e+00	1.005831e+00	1.018268e+00	2.558223e-01	1.017013e+00	1.017013e+00	4.150606e-01	
12	5.059333e-12	1.010732e+00	3.030448e-01	1.003673e+00	1.660593e-01	1.012253e+00	2.171982e-01	1.010539e+00	1.006530e+00	1.013174e+00	2.357427e-01	1.012654e+00	1.012654e+00	3.964794e-01	
13	6.785966e-12	1.007460e+00	2.744827e-01	1.000482e+00	1.538271e-01	1.007981e+00	1.872670e-01	1.005736e+00	1.005949e+00	1.008293e+00	2.081791e-01	1.008132e+00	1.008132e+00	3.535173e-01	
14	9.545318e-12	1.003952e+00	2.264455e-01	9.965620e-01	1.345769e-01	1.002864e+00	1.466017e-01	1.000755e+00	1.003681e+00	1.002981e+00	1.678481e-01	1.002749e+00	1.002749e+00	2.812559e-01	
15	1.298430e-11	1.000954e+00	1.737785e-01	9.933463e-01	1.129442e-01	9.987497e-01	1.073925e-01	9.973514e-01	1.000773e+00	9.987964e-01	1.267723e-01	9.983424e-01	9.983424e-01	2.063097e-01	
16	1.796468e-11	9.981472e-01	1.164719e-01	9.915439e-01	8.690064e-02	9.958663e-01	6.786414e-02	9.953779e-01	9.980482e-01	9.957363e-01	8.367193e-02	9.951759e-01	9.951758e-01	1.303007e-01	
17	2.456817e-11	9.965733e-01	6.752818e-02	9.919435e-01	6.104739e-02	9.950764e-01	3.646873e-02	9.951613e-01	9.966531e-01	9.948410e-01	4.770334e-02	9.942193e-01	9.942193e-01	7.020224e-02	
18	3.301724e-11	9.965047e-01	3.307992e-02	9.938196e-01	3.873619e-02	9.959755e-01	1.618172e-02	9.960303e-01	9.966882e-01	9.957633e-01	2.293504e-02	9.949748e-01	9.949748e-01	3.133287e-02	
19	4.301724e-11	9.973501e-01	1.397869e-02	9.959983e-01	2.255996e-02	9.974337e-01	6.089101e-03	9.972136e-01	9.975102e-01	9.972999e-01	9.497041e-03	9.964060e-01	9.964060e-01	1.187046e-02	
20	5.301724e-11	9.982326e-01	5.949163e-03	9.975790e-01	1.316366e-02	9.985028e-01	2.349875e-03	9.981432e-01	9.983133e-01	9.984280e-01	3.994904e-03	9.976004e-01	9.976004e-01	4.579648e-03	
21	6.301724e-11	9.988804e-01	2.570494e-03	9.985762e-01	7.696223e-03	9.991388e-01	9.514296e-04	9.987850e-01	9.988909e-01	9.991003e-01	1.711126e-03	9.984356e-01	9.984356e-01	1.832691e-03	
22	7.301724e-11	9.992987e-01	1.149177e-03	9.991677e-01	4.518243e-03	9.994919e-01	4.284797e-04	9.992042e-01	9.992710e-01	9.994717e-01	7.821486e-04	9.989834e-01	9.989834e-01	7.840957e-04	
23	8.301724e-11	9.995542e-01	5.446433e-04	9.995029e-01	2.666089e-03	9.996821e-01	2.249647e-04	9.994704e-01	9.995124e-01	9.996721e-01	3.799836e-04	9.993330e-01	9.993330e-01	3.757953e-04	
24	9.301724e-11	9.997046e-01	2.882717e-04	9.996899e-01	1.591862e-03	9.997846e-01	1.487711e-04	9.996369e-01	9.996632e-01	9.997791e-01	2.237924e-04	9.995520e-01	9.995520e-01	2.121290e-04	
25	1.030172e-10	9.997922e-01	1.764917e-04	9.997910e-01	9.635667e-04	9.998400e-01	1.150464e-04	9.997400e-01	9.997565e-01	9.998373e-01	1.449010e-04	9.996882e-01	9.996882e-01	1.439509e-04	
26	1.130172e-10	9.998423e-01	1.289334e-04	9.998461e-01	6.015624e-04	9.998702e-01	1.038142e-04	9.998037e-01	9.998140e-01	9.998686e-01	1.215451e-04	9.997721e-01	9.997721e-01	1.142595e-04	
27	1.230172e-10	9.998711e-01	1.070672e-04	9.998750e-01	3.875876e-04	9.998871e-01	9.620268e-05	9.998428e-01	9.998494e-01	9.998863e-01	1.010867e-04	9.998239e-01	9.998239e-01	1.006207e-04	
28	1.330172e-10	9.998874e-01	9.804225e-05	9.998908e-01	2.665872e-04	9.998964e-01	9.518633e-05	9.998669e-01	9.998710e-01	9.998958e-01	1.008463e-04	9.998555e-01	9.998555e-01	9.406734e-05	
29	1.430172e-10	9.998968e-01	9.330871e-05	9.998987e-01	1.928299e-04	9.999018e-01	9.233231e-05	9.998816e-01	9.998843e-01	9.999015e-01	9.234720e-05	9.998749e-01	9.998749e-01	9.075084e-05	
30	1.530172e-10	9.999021e-01	9.165614e-05	9.999032e-01	1.533012e-04	9.999047e-01	9.305897e-05	9.998906e-01	9.998925e-01	9.999044e-01	9.583084e-05	9.998867e-01	9.998867e-01	8.902893e-05	
31	1.630172e-10	9.999052e-01	9.042328e-05	9.999053e-01	1.270170e-04	9.999066e-01	9.139575e-05	9.998961e-01	9.998975e-01	9.999064e-01	9.057788e-05	9.998940e-01	9.998940e-01	8.809905e-05	
32	1.730172e-10	9.999069e-01	9.021845e-05	9.999065e-01	1.149807e-04	9.999074e-01	9.237513e-05	9.998995e-01	9.999005e-01	9.999073e-01	9.423344e-05	9.998984e-01	9.998984e-01	8.759353e-05	
33	1.830172e-10	9.999080e-01	8.978962e-05	9.999071e-01	1.048031e-04	9.999082e-01	9.116767e-05	9.999016e-01	9.999024e-01	9.999080e-01	9.034149e-05	9.999011e-01	9.999011e-01	8.731354e-05	
34	1.930172e-10	9.999085e-01	8.985496e-05	9.999074e-01	1.020024e-04	9.999083e-01	9.209574e-05	9.999029e-01	9.999035e-01	9.999082e-01	9.353281e-05	9.999027e-01	9.999027e-01	8.715526e-05	
35	2.000000e-10	9.999088e-01	8.967112e-05	9.999075e-01	9.803885e-05	9.999086e-01	9.116637e-05	9.999034e-01	9.999041e-01	9.999084e-01	9.054453e-05	9.999035e-01	9.999035e-01	8.709263e-05	
36	2.010000e-10	9.999088e-01	8.970788e-05	9.999075e-01	9.869695e-05	9.999086e-01	9.150925e-05	9.999035e-01	9.999041e-01	9.999084e-01	9.162175e-05	9.999036e-01	9.999036e-01	8.708309e-05	
37	2.030000e-10	9.999089e-01	8.972997e-05	9.999076e-01	9.835628e-05	9.999086e-01	9.162565e-05	9.999036e-01	9.999042e-01	9.999084e-01	9.205504e-05	9.999038e-01	9.999038e-01	8.707033e-05	
38	2.070000e-10	9.999090e-01	8.970025e-05	9.999076e-01	9.753086e-05	9.999087e-01	9.152813e-05	9.999038e-01	9.999044e-01	9.999085e-01	9.173874e-05	9.999040e-01	9.999040e-01	8.704723e-05	
39	2.150000e-10	9.999091e-01	8.969303e-05	9.999077e-01	9.651124e-05	9.999087e-01	9.158371e-05	9.999042e-01	9.999047e-01	9.999086e-01	9.195461e-05	9.999045e-01	9.999045e-01	8.701402e-05	
40	2.250000e-10	9.999092e-01	8.966960e-05	9.999077e-01	9.558409e-05	9.999088e-01	9.150453e-05	9.999044e-01	9.999050e-01	9.999086e-01	9.171373e-05	9.999048e-01	9.999048e-01	8.698865e-05	
41	2.350000e-10	9.999093e-01	8.967072e-05	9.999078e-01	9.515841e-05	9.999088e-01	9.155633e-05	9.999046e-01	9.999051e-01	9.999087e-01	9.189755e-05	9.999050e-01	9.999050e-01	8.697424e-05	
42	2.450000e-10	9.999093e-01	8.965986e-05	9.999078e-01	9.480222e-05	9.999088e-01	9.149649e-05	9.999047e-01	9.999052e-01	9.999087e-01	9.171109e-05	9.999051e-01	9.999051e-01	8.696617e-05	
43	2.550000e-10	9.999093e-01	8.966364e-05	9.999078e-01	9.469989e-05	9.999089e-01	9.154372e-05	9.999048e-01	9.999053e-01	9.999087e-01	9.186744e-05	9.999052e-01	9.999052e-01	8.696149e-05	
44	2.650000e-10	9.999093e-01	8.965763e-05	9.999078e-01	9.453973e-05	9.999089e-01	9.149595e-05	9.999048e-01	9.999053e-01	9.999087e-01	9.171886e-05	9.999053e-01	9.999053e-01	8.695901e-05	
45	2.750000e-10	9.999093e-01	8.966102e-05	9.999078e-01	9.454358e-05	9.999089e-01	9.153691e-05	9.999048e-01	9.999053e-01	9.999087e-01	9.184865e-05	9.999053e-01	9.999053e-01	8.695743e-05	
46	2.850000e-10	9.999093e-01	8.965741e-05	9.999078e-01	9.445250e-05	9.999089e-01	9.149775e-05	9.999048e-01	9.999053e-01	9.999087e-01	9.172879e-05	9.999053e-01	9.999053e-01	8.695674e-05	
47	2.950000e-10	9.999093e-01	8.965984e-05	9.999078e-01	9.448949e-05	9.999089e-01	9.153258e-05	9.999049e-01	9.999053e-01	9.999087e-01	9.183537e-05	9.999053e-01	9.999053e-01	8.695613e-05	
48	3.050000e-10	9.999093e-01	8.965767e-05	9.999078e-01	9.442426e-05	9.999089e-01	9.150007e-05	9.999049e-01	9.999053e-01	9.999087e-01	9.173822e-05	9.999053e-01	9.999053e-01	8.695602e-05	
49	3.150000e-10	9.999093e-01	8.965919e-05	9.999078e-01	9.446987e-05	9.999089e-01	9.152946e-05	9.999049e-01	9.999053e-01	9.999087e-01	9.182525e-05	9.999053e-01	9.999053e-01	8.695572e-05	
50	3.250000e-10	9.999093e-01	8.965800e-05	9.999078e-01	9.441860e-05	9.999089e-01	9.150232e-05	9.999049e-01	9.999053e-01	9.999087e-01	9.174643e-05	9.999053e-01	9.999053e-01	8.695580e-05	
51	3.260000e-10	9.999093e-01	8.965816e-05	9.999078e-01	9.444195e-05	9.999089e-01	9.151293e-05	9.999049e-01	9.999053e-01	9.999087e-01	9.177595e-05	9.999053e-01	9.999053e-01	8.695571e-05	
52	3.280000e-10	9.999093e-01	8.965860e-05	9.999078e-01	9.444663e-05	9.999089e-01	9.151670e-05	9.999049e-01	9.999053e-01	9.999087e-01	9.178835e-05	9.999053e-01	9.999053e-01	8.695570e-05	
53	3.320000e-10	9.999093e-01	8.965839e-05	9.999078e-01	9.444968e-05	9.999089e-01	9.151404e-05	9.999049e-01	9.999053e-01	9.999087e-01	9.178005e-05	9.999053e-01	9.999053e-01	8.695568e-05	
54	3.400000e-10	9.999093e-01	8.965851e-05	9.999078e-01	9.440565e-05	9.999089e-01	9.151622e-05	9.999049e-01	9.999053e-01	9.999087e-01	9.178678e-05	9.999053e-01	9.999053e-01	8.695565e-05	
55	3.486923e-10	9.999093e-01	8.965833e-05	9.999078e-01	9.400540e-05	9.999089e-01	9.151407e-05	9.999049e-01	9.999053e-01	9.999087e-01	9.178063e-05	9.999053e-01	9.999053e-01	8.695564e-05	
56	3.574351e-10	9.999094e-01	8.965867e-05	9.999078e-01	9.606121e-05	9.999089e-01	9.151645e-05	9.999049e-01	9.999053e-01	9.999088e-01	9.178641e-05	9.999053e-01	9.999053e-01	8.695563e-05	
57	3.659315e-10	9.999096e-01	8.966205e-05	9.999078e-01	1.161932e-04	9.999093e-01	9.152087e-05	9.999049e-01	9.999054e-01	9.999091e-01	9.178676e-05	9.999053e-01	9.999053e-01	8.695562e-05	
58	3.750725e-10	9.999087e-01	8.965072e-05	9.999078e-01	2.974280e-05	9.999077e-01	9.149749e-05	9.999049e-01	9.999054e-01	9.999077e-01	9.177147e-05	9.999053e-01	9.999053e-01	8.695561e-05	
59	3.841904e-10	9.998960e-01	8.948352e-05	9.999078e-01	-9.382759e-04	9.998889e-01	9.120578e-05	9.999049e-01	9.999053e-01	9.998902e-01	9.152169e-05	9.999053e-01	9.999053e-01	8.695559e-05	
60	3.941904e-10	9.999533e-01	9.022925e-05	9.999078e-01	4.165778e-03	9.999855e-01	9.274328e-05	9.999049e-01	9.999054e-01	9.999768e-01	9.275946e-05	9.999054e-01	9.999054e-01	8.695569e-05	
61	4.032031e-10	1.000761e+00	1.007782e-04	9.999079e-01	6.580369e-02	1.001200e+00	1.112914e-04	9.999050e-01	9.999056e-01	1.001099e+00	1.084210e-04	9.999055e-01	9.999055e-01	8.695725e-05	
62	4.130971e-10	1.002407e+00	1.214593e-04	9.999083e-01	2.512302e-01	1.002350e+00	1.242633e-04	9.999053e-01	9.999058e-01	1.002312e+00	1.227769e-04	9.999057e-01	9.999057e-01	8.695973e-05	
63	4.230971e-10	9.822545e-01	-1.520402e-04	9.999044e-01	4.792521e-01	9.650585e-01	-4.660908e-04	9.999000e-01	9.998994e-01	9.680415e-01	-3.712825e-04	9.999011e-01	9.999011e-01	8.691296e-05	
64	4.330971e-10	8.813188e-01	-1.358796e-03	9.998865e-01	6.488724e-01	7.979598e-01	-1.998883e-03	9.998826e-01	9.998797e-01	8.096725e-01	-1.870831e-03	9.998837e-01	9.998837e-01	8.672164e-05	
65	4.430971e-10	6.790760e-01	2.193667e-03	9.999341e-01	7.596201e-01	5.006619e-01	2.775181e-02	1.000147e+00	1.000203e+00	5.191518e-01	2.123969e-02	1.000101e+00	1.000101e+00	8.730214e-05	
66	4.516120e-10	4.691755e-01	3.740647e-02	1.000444e+00	8.309162e-01	2.644639e-01	1.555191e-01	1.001323e+00	1.001582e+00	2.799381e-01	1.302540e-01	1.001194e+00	1.001194e+00	9.254410e-05	
67	4.606311e-10	2.742203e-01	1.662068e-01	1.002094e+00	8.861704e-01	1.264870e-01	4.005740e-01	9.965685e-01	9.954636e-01	1.346117e-01	3.555961e-01	9.988566e-01	9.988566e-01	1.097874e-04	
68	4.706311e-10	1.381170e-01	4.092392e-01	9.912404e-01	9.280948e-01	5.948169e-02	6.496463e-01	9.280803e-01	9.141662e-01	6.366973e-02	6.036377e-01	9.455000e-01	9.455000e-01	4.815874e-05	
69	4.801658e-10	7.174616e-02	6.388438e-01	9.140025e-01	9.546863e-01	2.874032e-02	8.017073e-01	7.477824e-01	7.127251e-01	3.085403e-02	7.638158e-01	7.854908e-01	7.854906e-01	-5.465130e-04	
70	4.868935e-10	4.469252e-02	7.583650e-01	7.914361e-01	9.669899e-01	1.854761e-02	8.764375e-01	5.840386e-01	5.422872e-01	1.975617e-02	8.428421e-01	6.227994e-01	6.227991e-01	-1.536573e-03	
71	4.938391e-10	2.795594e-02	8.431084e-01	6.234224e-01	9.766673e-01	1.185674e-02	9.284697e-01	4.449788e-01	4.086506e-01	1.279115e-02	9.027541e-01	4.709309e-01	4.709306e-01	-1.287907e-03	
72	5.022522e-10	1.567062e-02	9.083621e-01	4.234864e-01	9.844629e-01	7.173687e-03	9.628958e-01	3.314400e-01	3.024051e-01	7.756088e-03	9.469143e-01	3.436737e-01	3.436734e-01	1.766511e-02	
73	5.101446e-10	9.323040e-03	9.458479e-01	2.799544e-01	9.896021e-01	4.247610e-03	9.801283e-01	2.576460e-01	2.302976e-01	4.661078e-03	9.697666e-01	2.651077e-01	2.651075e-01	1.009279e-01	
74	5.198089e-10	4.894102e-03	9.719111e-01	1.661762e-01	9.935107e-01	2.306919e-03	9.901528e-01	1.817786e-01	1.596058e-01	2.477244e-03	9.847665e-01	1.878386e-01	1.878384e-01	3.310139e-01	
75	5.298089e-10	2.545122e-03	9.855910e-01	9.327057e-02	9.961333e-01	1.141607e-03	9.949514e-01	1.186923e-01	1.053772e-01	1.273245e-03	9.919544e-01	1.234766e-01	1.234764e-01	6.195639e-01	
76	5.398089e-10	1.347249e-03	9.925174e-01	5.038349e-02	9.975961e-01	6.436775e-04	9.971125e-01	7.610448e-02	6.869442e-02	6.663157e-04	9.955584e-01	7.863892e-02	7.863884e-02	8.242523e-01	
77	5.498089e-10	7.252058e-04	9.960561e-01	2.787743e-02	9.985711e-01	3.452791e-04	9.983008e-01	4.789396e-02	4.361947e-02	3.938934e-04	9.973772e-01	4.872871e-02	4.872866e-02	9.243980e-01	
78	5.598089e-10	4.313398e-04	9.979153e-01	1.492686e-02	9.990749e-01	2.435240e-04	9.989326e-01	3.009572e-02	2.742785e-02	2.371895e-04	9.984492e-01	3.005570e-02	3.005567e-02	9.677351e-01	
79	5.698089e-10	2.525876e-04	9.988487e-01	8.203869e-03	9.994425e-01	1.590319e-04	9.993022e-01	1.884781e-02	1.718668e-02	1.837386e-04	9.990140e-01	1.845056e-02	1.845054e-02	9.863460e-01	
80	5.798089e-10	1.902047e-04	9.993622e-01	4.401673e-03	9.996050e-01	1.408286e-04	9.995519e-01	1.170961e-02	1.064304e-02	1.302297e-04	9.993946e-01	1.128513e-02	1.128512e-02	9.941149e-01	
81	5.898089e-10	1.278035e-04	9.996118e-01	2.396003e-03	9.997500e-01	1.105166e-04	9.996633e-01	7.386722e-03	6.713250e-03	1.261097e-04	9.995777e-01	6.985215e-03	6.985208e-03	9.974186e-01	
82	5.998089e-10	1.241692e-04	9.997580e-01	1.346670e-03	9.997943e-01	1.095379e-04	9.997837e-01	4.530339e-03	4.106768e-03	9.973418e-05	9.997266e-01	4.242820e-03	4.242815e-03	9.988193e-01	
83	6.098089e-10	9.483531e-05	9.998248e-01	7.168184e-04	9.998574e-01	9.605728e-05	9.998022e-01	2.929648e-03	2.657524e-03	1.071596e-04	9.997815e-01	2.693130e-03	2.693127e-03	9.994229e-01	
84	6.198089e-10	1.046942e-04	9.998675e-01	4.736636e-04	9.998619e-01	9.859775e-05	9.998713e-01	1.763023e-03	1.598890e-03	9.043150e-05	9.998457e-01	1.617890e-03	1.617888e-03	9.996898e-01	
85	6.298089e-10	8.666345e-05	9.998851e-01	2.404336e-04	9.998943e-01	9.144644e-05	9.998574e-01	1.208031e-03	1.098048e-03	9.989873e-05	9.998573e-01	1.087426e-03	1.087425e-03	9.998070e-01	
86	6.398089e-10	9.809125e-05	9.998978e-01	2.247061e-04	9.998864e-01	9.444336e-05	9.999034e-01	7.070615e-04	6.449483e-04	8.781365e-05	9.998884e-01	6.433186e-04	6.433178e-04	9.998622e-01	
87	6.498089e-10	8.525472e-05	9.999023e-01	1.094034e-04	9.999068e-01	8.998969e-05	9.998803e-01	5.438120e-04	4.988411e-04	9.668389e-05	9.998862e-01	4.847100e-04	4.847099e-04	9.998868e-01	
88	6.598089e-10	9.528870e-05	9.999062e-01	1.516035e-04	9.998954e-01	9.276521e-05	9.999142e-01	3.086203e-04	2.854444e-04	8.740193e-05	9.999035e-01	2.837936e-04	2.837932e-04	9.998992e-01	
89	6.698089e-10	8.561662e-05	9.999073e-01	7.636153e-05	9.999107e-01	8.958913e-05	9.998905e-01	2.860843e-04	2.673199e-04	9.502402e-05	9.998975e-01	2.565364e-04	2.565364e-04	9.999049e-01	
90	6.798089e-10	9.375553e-05	9.999085e-01	1.277370e-04	9.998988e-01	9.203898e-05	9.999170e-01	1.609168e-04	1.520346e-04	8.768816e-05	9.999085e-01	1.529694e-04	1.529692e-04	9.999079e-01	
91	6.898089e-10	8.634258e-05	9.999087e-01	7.061639e-05	9.999119e-01	8.953622e-05	9.998956e-01	1.844235e-04	1.764433e-04	9.402225e-05	9.999023e-01	1.685805e-04	1.685806e-04	9.999093e-01	
92	6.998089e-10	9.274384e-05	9.999092e-01	1.178750e-04	9.999002e-01	9.168846e-05	9.999169e-01	1.080589e-04	1.040992e-04	8.814547e-05	9.999099e-01	1.068349e-04	1.068348e-04	9.999101e-01	
93	7.098089e-10	8.704574e-05	9.999091e-01	7.208318e-05	9.999121e-01	8.959020e-05	9.998986e-01	1.428774e-04	1.395104e-04	9.333657e-05	9.999044e-01	1.334190e-04	1.334191e-04	9.999105e-01	
94	7.198089e-10	9.200886e-05	9.999093e-01	1.123209e-04	9.999009e-01	9.149257e-05	9.999159e-01	9.064521e-05	8.817468e-05	8.859879e-05	9.999101e-01	9.177886e-05	9.177873e-05	9.999107e-01	
95	7.298089e-10	8.763541e-05	9.999093e-01	7.509866e-05	9.999120e-01	8.967078e-05	9.999006e-01	1.247434e-04	1.234578e-04	9.282727e-05	9.999055e-01	1.183857e-04	1.183858e-04	9.999108e-01	
96	7.398089e-10	9.145365e-05	9.999094e-01	1.084008e-04	9.999012e-01	9.136438e-05	9.999148e-01	8.617576e-05	8.401810e-05	8.899706e-05	9.999100e-01	8.789707e-05	8.789697e-05	9.999109e-01	
97	7.498089e-10	8.810596e-05	9.999093e-01	7.810915e-05	9.999119e-01	8.975231e-05	9.999020e-01	1.159559e-04	1.156622e-04	9.243105e-05	9.999061e-01	1.112275e-04	1.112276e-04	9.999109e-01	
98	7.598089e-10	9.102860e-05	9.999094e-01	1.053405e-04	9.999014e-01	9.126888e-05	9.999137e-01	8.619952e-05	8.400991e-05	8.933201e-05	9.999097e-01	8.784371e-05	8.784362e-05	9.999109e-01	
99	7.698089e-10	8.847383e-05	9.999093e-01	8.073378e-05	9.999118e-01	8.982744e-05	9.999032e-01	1.110855e-04	1.112792e-04	9.211517e-05	9.999065e-01	1.073088e-04	1.073089e-04	9.999109e-01	
100	7.798089e-10	9.070202e-05	9.999094e-01	1.028729e-04	9.999016e-01	9.119150e-05	9.999128e-01	8.759065e-05	8.531336e-05	8.960894e-05	9.999094e-01	8.894372e-05	8.894365e-05	9.999109e-01	
101	7.898089e-10	8.875869e-05	9.999093e-01	8.292410e-05	9.999116e-01	8.989474e-05	9.999041e-01	1.080002e-04	1.084256e-04	9.186008e-05	9.999068e-01	1.048440e-04	1.048440e-04	9.999109e-01	
102	7.998089e-10	9.045106e-05	9.999094e-01	1.008688e-04	9.999018e-01	9.112584e-05	9.999120e-01	8.922981e-05	8.689695e-05	8.983644e-05	9.999092e-01	9.025261e-05	9.025255e-05	9.999109e-01	
103	8.098089e-10	8.897819e-05	9.999093e-01	8.472116e-05	9.999115e-01	8.995449e-05	9.999048e-01	1.058332e-04	1.063488e-04	9.165267e-05	9.999070e-01	1.031197e-04	1.031197e-04	9.999109e-01	
104	8.198089e-10	9.025839e-05	9.999094e-01	9.924092e-05	9.999019e-01	9.106883e-05	9.999113e-01	9.074585e-05	8.840608e-05	9.002293e-05	9.999091e-01	9.146139e-05	9.146134e-05	9.999109e-01	
105	8.298089e-10	8.914685e-05	9.999093e-01	8.618450e-05	9.999114e-01	9.000742e-05	9.999054e-01	1.042085e-04	1.047311e-04	9.148338e-05	9.999072e-01	1.018311e-04	1.018312e-04	9.999109e-01	
106	8.398089e-10	9.011063e-05	9.999094e-01	9.792072e-05	9.999020e-01	9.101879e-05	9.999108e-01	9.204073e-05	8.973650e-05	9.017576e-05	9.999089e-01	9.248988e-05	9.248984e-05	9.999109e-01	
107	8.498089e-10	8.927619e-05	9.999093e-01	8.737170e-05	9.999112e-01	9.005428e-05	9.999059e-01	1.029459e-04	1.034247e-04	9.134491e-05	9.999073e-01	1.008332e-04	1.008332e-04	9.999109e-01	
108	8.598089e-10	8.999745e-05	9.999094e-01	9.685158e-05	9.999021e-01	9.097464e-05	9.999103e-01	9.311152e-05	9.087374e-05	9.030100e-05	9.999088e-01	9.333643e-05	9.333639e-05	9.999109e-01	
109	8.698089e-10	8.937524e-05	9.999093e-01	8.833294e-05	9.999111e-01	9.009578e-05	9.999063e-01	1.019464e-04	1.023509e-04	9.123152e-05	9.999074e-01	1.000464e-04	1.000465e-04	9.999109e-01	
110	8.798089e-10	8.991087e-05	9.999094e-01	9.598671e-05	9.999022e-01	9.093559e-05	9.999100e-01	9.398456e-05	9.183317e-05	9.040364e-05	9.999087e-01	9.402314e-05	9.402310e-05	9.999109e-01	
111	8.898089e-10	8.945097e-05	9.999093e-01	8.911031e-05	9.999110e-01	9.013256e-05	9.999066e-01	1.011479e-04	1.014608e-04	9.113864e-05	9.999075e-01	9.942085e-05	9.942086e-05	9.999109e-01	
112	8.998089e-10	8.984471e-05	9.999094e-01	9.528761e-05	9.999023e-01	9.090100e-05	9.999097e-01	9.469189e-05	9.263799e-05	9.048775e-05	9.999086e-01	9.457652e-05	9.457649e-05	9.999109e-01	
113	9.098089e-10	8.950880e-05	9.999093e-01	8.973854e-05	9.999109e-01	9.016519e-05	9.999069e-01	1.005070e-04	1.007201e-04	9.106256e-05	9.999076e-01	9.892138e-05	9.892139e-05	9.999109e-01	
114	9.198089e-10	8.979424e-05	9.999094e-01	9.472281e-05	9.999024e-01	9.087031e-05	9.999094e-01	9.526337e-05	9.331143e-05	9.055665e-05	9.999086e-01	9.502109e-05	9.502107e-05	9.999109e-01	
115	9.298089e-10	8.955290e-05	9.999093e-01	9.024600e-05	9.999108e-01	9.019416e-05	9.999071e-01	9.999151e-05	1.001024e-04	9.100028e-05	9.999076e-01	9.852186e-05	9.852187e-05	9.999109e-01	
116	9.398089e-10	8.975580e-05	9.999094e-01	9.426667e-05	9.999025e-01	9.084305e-05	9.999092e-01	9.572456e-05	9.387438e-05	9.061303e-05	9.999085e-01	9.537777e-05	9.537775e-05	9.999109e-01	
117	9.498089e-10	8.958645e-05	9.999093e-01	9.065579e-05	9.999107e-01	9.021991e-05	9.999073e-01	9.957632e-05	9.958697e-05	9.094934e-05	9.999077e-01	9.820199e-05	9.820200e-05	9.999109e-01	
118	9.598089e-10	8.972658e-05	9.999094e-01	9.389838e-05	9.999026e-01	9.081879e-05	9.999091e-01	9.609662e-05	9.434482e-05	9.065912e-05	9.999085e-01	9.566373e-05	9.566372e-05	9.999109e-01	
119	9.698089e-10	8.961192e-05	9.999093e-01	9.098663e-05	9.999106e-01	9.024286e-05	9.999074e-01	9.924166e-05	9.915651e-05	9.090775e-05	9.999077e-01	9.794579e-05	9.794579e-05	9.999109e-01	
120	9.798089e-10	8.970444e-05	9.999094e-01	9.360108e-05	9.999027e-01	9.079717e-05	9.999090e-01	9.639677e-05	9.473794e-05	9.069674e-05	9.999084e-01	9.589296e-05	9.589295e-05	9.999109e-01	
121	9.898089e-10	8.963121e-05	9.999093e-01	9.125367e-05	9.999105e-01	9.026334e-05	9.999076e-01	9.897177e-05	9.879690e-05	9.087384e-05	9.999077e-01	9.774052e-05	9.774052e-05	9.999109e-01	
122	9.998089e-10	8.968770e-05	9.999094e-01	9.336113e-05	9.999028e-01	9.077785e-05	9.999088e-01	9.663899e-05	9.506650e-05	9.072737e-05	9.999084e-01	9.607670e-05	9.607669e-05	9.999109e-01	
123	1.009809e-09	8.964576e-05	9.999093e-01	9.146920e-05	9.999105e-01	9.028165e-05	9.999077e-01	9.875399e-05	9.849635e-05	9.084626e-05	9.999078e-01	9.757603e-05	9.757603e-05	9.999109e-01	
124	1.019809e-09	8.967511e-05	9.999094e-01	9.316749e-05	9.999029e-01	9.076056e-05	9.999088e-01	9.683452e-05	9.534117e-05	9.075226e-05	9.999084e-01	9.622399e-05	9.622397e-05	9.999109e-01	
125	1.029809e-09	8.965668e-05	9.999093e-01	9.164311e-05	9.999104e-01	9.029807e-05	9.999077e-01	9.857818e-05	9.824509e-05	9.082389e-05	9.999078e-01	9.744419e-05	9.744419e-05	9.999109e-01	
126	1.039809e-09	8.966568e-05	9.999094e-01	9.301124e-05	9.999030e-01	9.074504e-05	9.999087e-01	9.699244e-05	9.557087e-05	9.077242e-05	9.999084e-01	9.634207e-05	9.634206e-05	9.999109e-01	
127	1.049809e-09	8.966484e-05	9.999093e-01	9.178344e-05	9.999103e-01	9.031282e-05	9.999078e-01	9.843616e-05	9.803495e-05	9.080582e-05	9.999078e-01	9.733850e-05	9.733850e-05	9.999109e-01	
128	1.059809e-09	8.965867e-05	9.999094e-01	9.288519e-05	9.999031e-01	9.073108e-05	9.999086e-01	9.712006e-05	9.576303e-05	9.078868e-05	9.999083e-01	9.643676e-05	9.643675e-05	9.999109e-01	
129	1.069809e-09	8.967089e-05	9.999093e-01	9.189664e-05	9.999102e-01	9.032611e-05	9.999079e-01	9.832137e-05	9.785913e-05	9.079127e-05	9.999078e-01	9.725375e-05	9.725375e-05	9.999109e-01	
130	1.079809e-09	8.965351e-05	9.999094e-01	9.278351e-05	9.999032e-01	9.071849e-05	9.999086e-01	9.722326e-05	9.592386e-05	9.080175e-05	9.999083e-01	9.651271e-05	9.651270e-05	9.999109e-01	
131	1.089809e-09	8.967532e-05	9.999093e-01	9.198794e-05	9.999101e-01	9.033811e-05	9.999079e-01	9.822852e-05	9.771196e-05	9.077963e-05	9.999079e-01	9.718577e-05	9.718577e-05	9.999109e-01	
132	1.099809e-09	8.964974e-05	9.999094e-01	9.270152e-05	9.999032e-01	9.070711e-05	9.999085e-01	9.730679e-05	9.605853e-05	9.081218e-05	9.999083e-01	9.657366e-05	9.657365e-05	9.999109e-01	
133	1.109809e-09	8.967853e-05	9.999093e-01	9.206157e-05	9.999100e-01	9.034898e-05	9.999079e-01	9.815334e-05	9.758869e-05	9.077037e-05	9.999079e-01	9.713123e-05	9.713122e-05	9.999109e-01	
134	1.119809e-09	8.964705e-05	9.999094e-01	9.263541e-05	9.999033e-01	9.069680e-05	9.999085e-01	9.737446e-05	9.617136e-05	9.082045e-05	9.999083e-01	9.662259e-05	9.662258e-05	9.999109e-01	
135	1.129809e-09	8.968081e-05	9.999093e-01	9.212092e-05	9.999100e-01	9.035884e-05	9.999080e-01	9.809242e-05	9.748540e-05	9.076306e-05	9.999079e-01	9.708744e-05	9.708743e-05	9.999109e-01	
136	1.139809e-09	8.964516e-05	9.999094e-01	9.258212e-05	9.999034e-01	9.068743e-05	9.999085e-01	9.742935e-05	9.626595e-05	9.082695e-05	9.999083e-01	9.666189e-05	9.666188e-05	9.999109e-01	
137	1.149809e-09	8.968239e-05	9.999093e-01	9.216876e-05	9.999099e-01	9.036782e-05	9.999080e-01	9.804298e-05	9.739878e-05	9.075735e-05	9.999079e-01	9.705226e-05	9.705226e-05	9.999109e-01	
138	1.159809e-09	8.964389e-05	9.999094e-01	9.253919e-05	9.999035e-01	9.067890e-05	9.999084e-01	9.747392e-05	9.634532e-05	9.083201e-05	9.999083e-01	9.669349e-05	9.669348e-05	9.999109e-01	
139	1.169809e-09	8.968343e-05	9.999093e-01	9.220729e-05	9.999098e-01	9.037600e-05	9.999080e-01	9.800282e-05	9.732608e-05	9.075295e-05	9.999079e-01	9.702399e-05	9.702398e-05	9.999109e-01	
140	1.179809e-09	8.964307e-05	9.999094e-01	9.250461e-05	9.999035e-01	9.067110e-05	9.999084e-01	9.751017e-05	9.641196e-05	9.083589e-05	9.999083e-01	9.671890e-05	9.671889e-05	9.999109e-01	
141	1.189809e-09	8.968408e-05	9.999093e-01	9.223832e-05	9.999098e-01	9.038348e-05	9.999080e-01	9.797013e-05	9.726502e-05	9.074961e-05	9.999079e-01	9.700124e-05	9.700123e-05	9.999109e-01	
142	1.199809e-09	8.964261e-05	9.999094e-01	9.247678e-05	9.999036e-01	9.066398e-05	9.999084e-01	9.753971e-05	9.646796e-05	9.083880e-05	9.999083e-01	9.673937e-05	9.673937e-05	9.999109e-01	
143	1.209809e-09	8.968442e-05	9.999093e-01	9.226329e-05	9.999097e-01	9.039034e-05	9.999081e-01	9.794348e-05	9.721369e-05	9.074714e-05	9.999079e-01	9.698292e-05	9.698291e-05	9.999109e-01	
144	1.219809e-09	8.964239e-05	9.999094e-01	9.245439e-05	9.999037e-01	9.065744e-05	9.999084e-01	9.756383e-05	9.651508e-05	9.084093e-05	9.999083e-01	9.675588e-05	9.675588e-05	9.999109e-01	
145	1.229809e-09	8.968455e-05	9.999093e-01	9.228337e-05	9.999096e-01	9.039663e-05	9.999081e-01	9.792171e-05	9.717048e-05	9.074538e-05	9.999079e-01	9.696814e-05	9.696813e-05	9.999109e-01	
146	1.239809e-09	8.964237e-05	9.999094e-01	9.243640e-05	9.999037e-01	9.065144e-05	9.999084e-01	9.758357e-05	9.655477e-05	9.084243e-05	9.999082e-01	9.676922e-05	9.676921e-05	9.999109e-01	
147	1.249809e-09	8.968451e-05	9.999093e-01	9.229950e-05	9.999096e-01	9.040242e-05	9.999081e-01	9.790387e-05	9.713408e-05	9.074418e-05	9.999079e-01	9.695620e-05	9.695619e-05	9.999109e-01	
148	1.259809e-09	8.964249e-05	9.999094e-01	9.242196e-05	9.999038e-01	9.064591e-05	9.999084e-01	9.759977e-05	9.658823e-05	9.084342e-05	9.999082e-01	9.678001e-05	9.678001e-05	9.999109e-01	
149	1.269809e-09	8.968435e-05	9.999093e-01	9.231244e-05	9.999095e-01	9.040776e-05	9.999081e-01	9.788921e-05	9.710336e-05	9.074343e-05	9.999079e-01	9.694653e-05	9.694652e-05	9.999109e-01	
150	1.279809e-09	8.964271e-05	9.999094e-01	9.241038e-05	9.999038e-01	9.064081e-05	9.999084e-01	9.761311e-05	9.661650e-05	9.084400e-05	9.999082e-01	9.678877e-05	9.678876e-05	9.999109e-01	
151	1.289809e-09	8.968411e-05	9.999093e-01	9.232281e-05	9.999095e-01	9.041269e-05	9.999081e-01	9.787713e-05	9.707741e-05	9.074306e-05	9.999079e-01	9.693868e-05	9.693868e-05	9.999109e-01	
152	1.299809e-09	8.964300e-05	9.999094e-01	9.240111e-05	9.999039e-01	9.063610e-05	9.999083e-01	9.762413e-05	9.664041e-05	9.084425e-05	9.999082e-01	9.679590e-05	9.679589e-05	9.999109e-01	
153	1.309809e-09	8.968381e-05	9.999093e-01	9.233111e-05	9.999094e-01	9.041724e-05	9.999081e-01	9.786714e-05	9.705544e-05	9.074297e-05	9.999079e-01	9.693230e-05	9.693229e-05	9.999109e-01	
154	1.319809e-09	8.964333e-05	9.999094e-01	9.239370e-05	9.999040e-01	9.063174e-05	9.999083e-01	9.763328e-05	9.666067e-05	9.084424e-05	9.999082e-01	9.680171e-05	9.680170e-05	9.999109e-01	
155	1.329809e-09	8.968347e-05	9.999093e-01	9.233773e-05	9.999093e-01	9.042147e-05	9.999081e-01	9.785884e-05	9.703681e-05	9.074311e-05	9.999079e-01	9.692708e-05	9.692708e-05	9.999109e-01	
156	1.339809e-09	8.964370e-05	9.999094e-01	9.238780e-05	9.999040e-01	9.062770e-05	9.999083e-01	9.764090e-05	9.667787e-05	9.084403e-05	9.999082e-01	9.680648e-05	9.680647e-05	9.999109e-01	
157	1.349809e-09	8.968310e-05	9.999093e-01	9.234299e-05	9.999093e-01	9.042539e-05	9.999081e-01	9.785191e-05	9.702098e-05	9.074343e-05	9.999079e-01	9.692280e-05	9.692280e-05	9.999109e-01	
158	1.359809e-09	8.964409e-05	9.999094e-01	9.238312e-05	9.999041e-01	9.062395e-05	9.999083e-01	9.764729e-05	9.669251e-05	9.084367e-05	9.999082e-01	9.681041e-05	9.681040e-05	9.999109e-01	
159	1.369809e-09	8.968272e-05	9.999093e-01	9.234717e-05	9.999092e-01	9.042903e-05	9.999081e-01	9.784609e-05	9.700751e-05	9.074389e-05	9.999079e-01	9.691928e-05	9.691927e-05	9.999109e-01	
160	1.379809e-09	8.964448e-05	9.999094e-01	9.237941e-05	9.999041e-01	9.062046e-05	9.999083e-01	9.765267e-05	9.670499e-05	9.084318e-05	9.999082e-01	9.681366e-05	9.681365e-05	9.999109e-01	
161	1.389809e-09	8.968234e-05	9.999093e-01	9.235047e-05	9.999092e-01	9.043242e-05	9.999081e-01	9.784118e-05	9.699601e-05	9.074445e-05	9.999080e-01	9.691635e-05	9.691635e-05	9.999109e-01	
162	1.399809e-09	8.964488e-05	9.999094e-01	9.237649e-05	9.999042e-01	9.061722e-05	9.999083e-01	9.765723e-05	9.671566e-05	9.084261e-05	9.999082e-01	9.681637e-05	9.681636e-05	9.999109e-01	
163	1.409809e-09	8.968195e-05	9.999093e-01	9.235306e-05	9.999091e-01	9.043557e-05	9.999081e-01	9.783700e-05	9.698617e-05	9.074509e-05	9.999080e-01	9.691391e-05	9.691391e-05	9.999109e-01	
164	1.419809e-09	8.964528e-05	9.999094e-01	9.237422e-05	9.999042e-01	9.061420e-05	9.999083e-01	9.766113e-05	9.672481e-05	9.084197e-05	9.999082e-01	9.681864e-05	9.681864e-05	9.999109e-01	
165	1.429809e-09	8.968157e-05	9.999093e-01	9.235508e-05	9.999091e-01	9.043852e-05	9.999081e-01	9.783344e-05	9.697772e-05	9.074578e-05	9.999080e-01	9.691186e-05	9.691185e-05	9.999109e-01	
166	1.439809e-09	8.964567e-05	9.999094e-01	9.237245e-05	9.999043e-01	9.061137e-05	9.999083e-01	9.766448e-05	9.673268e-05	9.084128e-05	9.999082e-01	9.682057e-05	9.682056e-05	9.999109e-01	
167	1.449809e-09	8.968120e-05	9.999093e-01	9.235663e-05	9.999090e-01	9.044127e-05	9.999082e-01	9.783036e-05	9.697045e-05	9.074650e-05	9.999080e-01	9.691012e-05	9.691011e-05	9.999109e-01	
[...]
44	2.650000e-10	8.695653e-05	8.695653e-05	8.696278e-05	8.696358e-05	8.696358e-05	8.696224e-05	8.696224e-05	
45	2.750000e-10	8.695582e-05	8.695582e-05	8.696197e-05	8.696218e-05	8.696218e-05	8.696121e-05	8.696121e-05	
46	2.850000e-10	8.695548e-05	8.695548e-05	8.696165e-05	8.696132e-05	8.696132e-05	8.696087e-05	8.696087e-05	
47	2.950000e-10	8.695529e-05	8.695529e-05	8.696128e-05	8.696079e-05	8.696079e-05	8.696037e-05	8.696037e-05	
48	3.050000e-10	8.695521e-05	8.695521e-05	8.696122e-05	8.696046e-05	8.696046e-05	8.696035e-05	8.696035e-05	
49	3.150000e-10	8.695516e-05	8.695516e-05	8.696102e-05	8.696027e-05	8.696027e-05	8.696006e-05	8.696006e-05	
50	3.250000e-10	8.695514e-05	8.695514e-05	8.696107e-05	8.696014e-05	8.696014e-05	8.696016e-05	8.696016e-05	
51	3.260000e-10	8.695514e-05	8.695514e-05	8.696101e-05	8.696014e-05	8.696014e-05	8.696007e-05	8.696007e-05	
52	3.280000e-10	8.695513e-05	8.695513e-05	8.696100e-05	8.696012e-05	8.696012e-05	8.696006e-05	8.696006e-05	
53	3.320000e-10	8.695513e-05	8.695513e-05	8.696099e-05	8.696009e-05	8.696009e-05	8.696005e-05	8.696005e-05	
54	3.400000e-10	8.695512e-05	8.695512e-05	8.696096e-05	8.696005e-05	8.696005e-05	8.696002e-05	8.696002e-05	
55	3.486923e-10	8.695512e-05	8.695512e-05	8.696095e-05	8.696001e-05	8.696001e-05	8.696000e-05	8.696000e-05	
56	3.574351e-10	8.695511e-05	8.695511e-05	8.696093e-05	8.695999e-05	8.695999e-05	8.695998e-05	8.695998e-05	
57	3.659315e-10	8.695511e-05	8.695511e-05	8.696093e-05	8.695998e-05	8.695998e-05	8.695998e-05	8.695998e-05	
58	3.750725e-10	8.695511e-05	8.695511e-05	8.696092e-05	8.695997e-05	8.695997e-05	8.695997e-05	8.695997e-05	
59	3.841904e-10	8.695509e-05	8.695509e-05	8.696087e-05	8.695993e-05	8.695993e-05	8.695993e-05	8.695993e-05	
60	3.941904e-10	8.695516e-05	8.695516e-05	8.696108e-05	8.696006e-05	8.696006e-05	8.696011e-05	8.696011e-05	
61	4.032031e-10	8.695651e-05	8.695651e-05	8.696399e-05	8.696210e-05	8.696210e-05	8.696289e-05	8.696289e-05	
62	4.130971e-10	8.696006e-05	8.696006e-05	8.696744e-05	8.696506e-05	8.696506e-05	8.696643e-05	8.696643e-05	
63	4.230971e-10	8.692596e-05	8.692596e-05	8.687398e-05	8.690047e-05	8.690047e-05	8.687784e-05	8.687784e-05	
64	4.330971e-10	8.674632e-05	8.674632e-05	8.658987e-05	8.668539e-05	8.668539e-05	8.658128e-05	8.658128e-05	
65	4.430971e-10	8.713280e-05	8.713280e-05	9.124450e-05	8.988184e-05	8.988184e-05	9.068603e-05	9.068603e-05	
66	4.516120e-10	9.186781e-05	9.186781e-05	1.113017e-04	1.043652e-04	1.043652e-04	1.103876e-04	1.103876e-04	
67	4.606311e-10	1.086864e-04	1.086864e-04	2.277597e-05	4.696081e-05	4.696081e-05	6.123415e-05	6.123414e-05	
68	4.706311e-10	1.315511e-05	1.315511e-05	-1.150248e-03	-7.809655e-04	-7.809655e-04	-9.236100e-04	-9.236102e-04	
69	4.801658e-10	-7.195595e-04	-7.195595e-04	-1.318893e-03	-3.469870e-04	-3.469870e-04	-2.176909e-03	-2.176905e-03	
70	4.868935e-10	-1.581592e-03	-1.581592e-03	1.305327e-02	1.166076e-02	1.166076e-02	7.229974e-03	7.230002e-03	
71	4.938391e-10	2.080672e-03	2.080672e-03	8.367904e-02	6.851723e-02	6.851723e-02	6.378635e-02	6.378648e-02	
72	5.022522e-10	4.543450e-02	4.543450e-02	2.829494e-01	2.287165e-01	2.287165e-01	2.503121e-01	2.503123e-01	
73	5.101446e-10	1.659081e-01	1.659081e-01	5.383351e-01	4.342984e-01	4.342984e-01	5.144690e-01	5.144692e-01	
74	5.198089e-10	4.043480e-01	4.043480e-01	7.986593e-01	6.608247e-01	6.608247e-01	7.938556e-01	7.938556e-01	
75	5.298089e-10	6.481579e-01	6.481579e-01	9.336733e-01	8.147908e-01	8.147908e-01	9.372477e-01	9.372476e-01	
76	5.398089e-10	8.098227e-01	8.098227e-01	9.786086e-01	9.002969e-01	9.002969e-01	9.815595e-01	9.815595e-01	
77	5.498089e-10	8.990243e-01	8.990243e-01	9.929321e-01	9.470929e-01	9.470929e-01	9.941178e-01	9.941178e-01	
78	5.598089e-10	9.472287e-01	9.472287e-01	9.971681e-01	9.718529e-01	9.718529e-01	9.976431e-01	9.976431e-01	
79	5.698089e-10	9.724574e-01	9.724574e-01	9.987279e-01	9.850761e-01	9.850761e-01	9.988686e-01	9.988686e-01	
80	5.798089e-10	9.856711e-01	9.856711e-01	9.992678e-01	9.920292e-01	9.920292e-01	9.993374e-01	9.993374e-01	
81	5.898089e-10	9.925307e-01	9.925307e-01	9.995634e-01	9.957165e-01	9.957165e-01	9.995873e-01	9.995873e-01	
82	5.998089e-10	9.960821e-01	9.960821e-01	9.996933e-01	9.976743e-01	9.976743e-01	9.997141e-01	9.997141e-01	
83	6.098089e-10	9.979326e-01	9.979326e-01	9.997849e-01	9.987041e-01	9.987041e-01	9.997945e-01	9.997945e-01	
84	6.198089e-10	9.988814e-01	9.988814e-01	9.998295e-01	9.992659e-01	9.992659e-01	9.998388e-01	9.998388e-01	
85	6.298089e-10	9.993811e-01	9.993811e-01	9.998632e-01	9.995546e-01	9.995546e-01	9.998679e-01	9.998679e-01	
86	6.398089e-10	9.996336e-01	9.996336e-01	9.998798e-01	9.997215e-01	9.997215e-01	9.998841e-01	9.998841e-01	
87	6.498089e-10	9.997693e-01	9.997693e-01	9.998929e-01	9.998020e-01	9.998020e-01	9.998950e-01	9.998950e-01	
88	6.598089e-10	9.998359e-01	9.998359e-01	9.998989e-01	9.998544e-01	9.998544e-01	9.999008e-01	9.999008e-01	
89	6.698089e-10	9.998732e-01	9.998732e-01	9.999042e-01	9.998761e-01	9.998761e-01	9.999051e-01	9.999051e-01	
90	6.798089e-10	9.998905e-01	9.998905e-01	9.999062e-01	9.998939e-01	9.998939e-01	9.999071e-01	9.999071e-01	
91	6.898089e-10	9.999009e-01	9.999009e-01	9.999085e-01	9.998992e-01	9.998992e-01	9.999088e-01	9.999088e-01	
92	6.998089e-10	9.999053e-01	9.999053e-01	9.999090e-01	9.999059e-01	9.999059e-01	9.999094e-01	9.999094e-01	
93	7.098089e-10	9.999083e-01	9.999083e-01	9.999101e-01	9.999067e-01	9.999067e-01	9.999102e-01	9.999102e-01	
94	7.198089e-10	9.999094e-01	9.999094e-01	9.999101e-01	9.999095e-01	9.999095e-01	9.999103e-01	9.999103e-01	
95	7.298089e-10	9.999103e-01	9.999103e-01	9.999107e-01	9.999092e-01	9.999092e-01	9.999107e-01	9.999107e-01	
96	7.398089e-10	9.999105e-01	9.999105e-01	9.999105e-01	9.999106e-01	9.999106e-01	9.999106e-01	9.999106e-01	
97	7.498089e-10	9.999108e-01	9.999108e-01	9.999109e-01	9.999102e-01	9.999102e-01	9.999109e-01	9.999109e-01	
98	7.598089e-10	9.999108e-01	9.999108e-01	9.999107e-01	9.999109e-01	9.999109e-01	9.999107e-01	9.999107e-01	
99	7.698089e-10	9.999109e-01	9.999109e-01	9.999110e-01	9.999106e-01	9.999106e-01	9.999110e-01	9.999110e-01	
100	7.798089e-10	9.999109e-01	9.999109e-01	9.999108e-01	9.999110e-01	9.999110e-01	9.999108e-01	9.999108e-01	
101	7.898089e-10	9.999109e-01	9.999109e-01	9.999110e-01	9.999107e-01	9.999107e-01	9.999110e-01	9.999110e-01	
102	7.998089e-10	9.999109e-01	9.999109e-01	9.999108e-01	9.999110e-01	9.999110e-01	9.999108e-01	9.999108e-01	
103	8.098089e-10	9.999109e-01	9.999109e-01	9.999110e-01	9.999108e-01	9.999108e-01	9.999110e-01	9.999110e-01	
104	8.198089e-10	9.999109e-01	9.999109e-01	9.999108e-01	9.999110e-01	9.999110e-01	9.999109e-01	9.999109e-01	
105	8.298089e-10	9.999109e-01	9.999109e-01	9.999110e-01	9.999109e-01	9.999109e-01	9.999110e-01	9.999110e-01	
106	8.398089e-10	9.999109e-01	9.999109e-01	9.999109e-01	9.999109e-01	9.999109e-01	9.999109e-01	9.999109e-01	
107	8.498089e-10	9.999109e-01	9.999109e-01	9.999109e-01	9.999109e-01	9.999109e-01	9.999109e-01	9.999109e-01	
108	8.598089e-10	9.999109e-01	9.999109e-01	9.999109e-01	9.999109e-01	9.999109e-01	9.999109e-01	9.999109e-01	
109	8.698089e-10	9.999109e-01	9.999109e-01	9.999109e-01	9.999109e-01	9.999109e-01	9.999109e-01	9.999109e-01	
110	8.798089e-10	9.999109e-01	9.999109e-01	9.999109e-01	9.999109e-01	9.999109e-01	9.999109e-01	9.999109e-01	
111	8.898089e-10	9.999109e-01	9.999109e-01	9.999109e-01	9.999109e-01	9.999109e-01	9.999109e-01	9.999109e-01	
112	8.998089e-10	9.999109e-01	9.999109e-01	9.999109e-01	9.999109e-01	9.999109e-01	9.999109e-01	9.999109e-01	
113	9.098089e-10	9.999109e-01	9.999109e-01	9.999109e-01	9.999109e-01	9.999109e-01	9.999109e-01	9.999109e-01	
114	9.198089e-10	9.999109e-01	9.999109e-01	9.999109e-01	9.999109e-01	9.999109e-01	9.999109e-01	9.999109e-01	
115	9.298089e-10	9.999109e-01	9.999109e-01	9.999109e-01	9.999109e-01	9.999109e-01	9.999109e-01	9.999109e-01	
116	9.398089e-10	9.999109e-01	9.999109e-01	9.999109e-01	9.999109e-01	9.999109e-01	9.999109e-01	9.999109e-01	
117	9.498089e-10	9.999109e-01	9.999109e-01	9.999109e-01	9.999109e-01	9.999109e-01	9.999109e-01	9.999109e-01	
118	9.598089e-10	9.999109e-01	9.999109e-01	9.999109e-01	9.999109e-01	9.999109e-01	9.999109e-01	9.999109e-01	
119	9.698089e-10	9.999109e-01	9.999109e-01	9.999109e-01	9.999109e-01	9.999109e-01	9.999109e-01	9.999109e-01	
120	9.798089e-10	9.999109e-01	9.999109e-01	9.999109e-01	9.999109e-01	9.999109e-01	9.999109e-01	9.999109e-01	
121	9.898089e-10	9.999109e-01	9.999109e-01	9.999109e-01	9.999109e-01	9.999109e-01	9.999109e-01	9.999109e-01	
122	9.998089e-10	9.999109e-01	9.999109e-01	9.999109e-01	9.999109e-01	9.999109e-01	9.999109e-01	9.999109e-01	
123	1.009809e-09	9.999109e-01	9.999109e-01	9.999109e-01	9.999109e-01	9.999109e-01	9.999109e-01	9.999109e-01	
124	1.019809e-09	9.999109e-01	9.999109e-01	9.999109e-01	9.999109e-01	9.999109e-01	9.999109e-01	9.999109e-01	
125	1.029809e-09	9.999109e-01	9.999109e-01	9.999109e-01	9.999109e-01	9.999109e-01	9.999109e-01	9.999109e-01	
126	1.039809e-09	9.999109e-01	9.999109e-01	9.999109e-01	9.999109e-01	9.999109e-01	9.999109e-01	9.999109e-01	
127	1.049809e-09	9.999109e-01	9.999109e-01	9.999109e-01	9.999109e-01	9.999109e-01	9.999109e-01	9.999109e-01	
128	1.059809e-09	9.999109e-01	9.999109e-01	9.999109e-01	9.999109e-01	9.999109e-01	9.999109e-01	9.999109e-01	
129	1.069809e-09	9.999109e-01	9.999109e-01	9.999109e-01	9.999109e-01	9.999109e-01	9.999109e-01	9.999109e-01	
130	1.079809e-09	9.999109e-01	9.999109e-01	9.999109e-01	9.999109e-01	9.999109e-01	9.999109e-01	9.999109e-01	
131	1.089809e-09	9.999109e-01	9.999109e-01	9.999109e-01	9.999109e-01	9.999109e-01	9.999109e-01	9.999109e-01	
132	1.099809e-09	9.999109e-01	9.999109e-01	9.999109e-01	9.999109e-01	9.999109e-01	9.999109e-01	9.999109e-01	
133	1.109809e-09	9.999109e-01	9.999109e-01	9.999109e-01	9.999109e-01	9.999109e-01	9.999109e-01	9.999109e-01	
134	1.119809e-09	9.999109e-01	9.999109e-01	9.999109e-01	9.999109e-01	9.999109e-01	9.999109e-01	9.999109e-01	
135	1.129809e-09	9.999109e-01	9.999109e-01	9.999109e-01	9.999109e-01	9.999109e-01	9.999109e-01	9.999109e-01	
136	1.139809e-09	9.999109e-01	9.999109e-01	9.999109e-01	9.999109e-01	9.999109e-01	9.999109e-01	9.999109e-01	
137	1.149809e-09	9.999109e-01	9.999109e-01	9.999109e-01	9.999109e-01	9.999109e-01	9.999109e-01	9.999109e-01	
138	1.159809e-09	9.999109e-01	9.999109e-01	9.999109e-01	9.999109e-01	9.999109e-01	9.999109e-01	9.999109e-01	
139	1.169809e-09	9.999109e-01	9.999109e-01	9.999109e-01	9.999109e-01	9.999109e-01	9.999109e-01	9.999109e-01	
140	1.179809e-09	9.999109e-01	9.999109e-01	9.999109e-01	9.999109e-01	9.999109e-01	9.999109e-01	9.999109e-01	
141	1.189809e-09	9.999109e-01	9.999109e-01	9.999109e-01	9.999109e-01	9.999109e-01	9.999109e-01	9.999109e-01	
142	1.199809e-09	9.999109e-01	9.999109e-01	9.999109e-01	9.999109e-01	9.999109e-01	9.999109e-01	9.999109e-01	
143	1.209809e-09	9.999109e-01	9.999109e-01	9.999109e-01	9.999109e-01	9.999109e-01	9.999109e-01	9.999109e-01	
144	1.219809e-09	9.999109e-01	9.999109e-01	9.999109e-01	9.999109e-01	9.999109e-01	9.999109e-01	9.999109e-01	
145	1.229809e-09	9.999109e-01	9.999109e-01	9.999109e-01	9.999109e-01	9.999109e-01	9.999109e-01	9.999109e-01	
146	1.239809e-09	9.999109e-01	9.999109e-01	9.999109e-01	9.999109e-01	9.999109e-01	9.999109e-01	9.999109e-01	
147	1.249809e-09	9.999109e-01	9.999109e-01	9.999109e-01	9.999109e-01	9.999109e-01	9.999109e-01	9.999109e-01	
148	1.259809e-09	9.999109e-01	9.999109e-01	9.999109e-01	9.999109e-01	9.999109e-01	9.999109e-01	9.999109e-01	
149	1.269809e-09	9.999109e-01	9.999109e-01	9.999109e-01	9.999109e-01	9.999109e-01	9.999109e-01	9.999109e-01	
150	1.279809e-09	9.999109e-01	9.999109e-01	9.999109e-01	9.999109e-01	9.999109e-01	9.999109e-01	9.999109e-01	
151	1.289809e-09	9.999109e-01	9.999109e-01	9.999109e-01	9.999109e-01	9.999109e-01	9.999109e-01	9.999109e-01	
152	1.299809e-09	9.999109e-01	9.999109e-01	9.999109e-01	9.999109e-01	9.999109e-01	9.999109e-01	9.999109e-01	
153	1.309809e-09	9.999109e-01	9.999109e-01	9.999109e-01	9.999109e-01	9.999109e-01	9.999109e-01	9.999109e-01	
154	1.319809e-09	9.999109e-01	9.999109e-01	9.999109e-01	9.999109e-01	9.999109e-01	9.999109e-01	9.999109e-01	
155	1.329809e-09	9.999109e-01	9.999109e-01	9.999109e-01	9.999109e-01	9.999109e-01	9.999109e-01	9.999109e-01	
156	1.339809e-09	9.999109e-01	9.999109e-01	9.999109e-01	9.999109e-01	9.999109e-01	9.999109e-01	9.999109e-01	
157	1.349809e-09	9.999109e-01	9.999109e-01	9.999109e-01	9.999109e-01	9.999109e-01	9.999109e-01	9.999109e-01	
158	1.359809e-09	9.999109e-01	9.999109e-01	9.999109e-01	9.999109e-01	9.999109e-01	9.999109e-01	9.999109e-01	
159	1.369809e-09	9.999109e-01	9.999109e-01	9.999109e-01	9.999109e-01	9.999109e-01	9.999109e-01	9.999109e-01	
160	1.379809e-09	9.999109e-01	9.999109e-01	9.999109e-01	9.999109e-01	9.999109e-01	9.999109e-01	9.999109e-01	
161	1.389809e-09	9.999109e-01	9.999109e-01	9.999109e-01	9.999109e-01	9.999109e-01	9.999109e-01	9.999109e-01	
162	1.399809e-09	9.999109e-01	9.999109e-01	9.999109e-01	9.999109e-01	9.999109e-01	9.999109e-01	9.999109e-01	
163	1.409809e-09	9.999109e-01	9.999109e-01	9.999109e-01	9.999109e-01	9.999109e-01	9.999109e-01	9.999109e-01	
164	1.419809e-09	9.999109e-01	9.999109e-01	9.999109e-01	9.999109e-01	9.999109e-01	9.999109e-01	9.999109e-01	
165	1.429809e-09	9.999109e-01	9.999109e-01	9.999109e-01	9.999109e-01	9.999109e-01	9.999109e-01	9.999109e-01	
166	1.439809e-09	9.999109e-01	9.999109e-01	9.999109e-01	9.999109e-01	9.999109e-01	9.999109e-01	9.999109e-01	
167	1.449809e-09	9.999109e-01	9.999109e-01	9.999109e-01	9.999109e-01	9.999109e-01	9.999109e-01	9.999109e-01	
168	1.459809e-09	9.999109e-01	9.999109e-01	9.999109e-01	9.999109e-01	9.999109e-01	9.999109e-01	9.999109e-01	
169	1.469809e-09	9.999109e-01	9.999109e-01	9.999109e-01	9.999109e-01	9.999109e-01	9.999109e-01	9.999109e-01	
170	1.479809e-09	9.999109e-01	9.999109e-01	9.999109e-01	9.999109e-01	9.999109e-01	9.999109e-01	9.999109e-01	
171	1.489809e-09	9.999109e-01	9.999109e-01	9.999109e-01	9.999109e-01	9.999109e-01	9.999109e-01	9.999109e-01	
172	1.499809e-09	9.999109e-01	9.999109e-01	9.999109e-01	9.999109e-01	9.999109e-01	9.999109e-01	9.999109e-01	
173	1.509809e-09	9.999109e-01	9.999109e-01	9.999109e-01	9.999109e-01	9.999109e-01	9.999109e-01	9.999109e-01	
174	1.519809e-09	9.999109e-01	9.999109e-01	9.999109e-01	9.999109e-01	9.999109e-01	9.999109e-01	9.999109e-01	
175	1.529809e-09	9.999109e-01	9.999109e-01	9.999109e-01	9.999109e-01	9.999109e-01	9.999109e-01	9.999109e-01	
176	1.539809e-09	9.999109e-01	9.999109e-01	9.999109e-01	9.999109e-01	9.999109e-01	9.999109e-01	9.999109e-01	
177	1.549809e-09	9.999109e-01	9.999109e-01	9.999109e-01	9.999109e-01	9.999109e-01	9.999109e-01	9.999109e-01	
178	1.559809e-09	9.999109e-01	9.999109e-01	9.999109e-01	9.999109e-01	9.999109e-01	9.999109e-01	9.999109e-01	
179	1.569809e-09	9.999109e-01	9.999109e-01	9.999109e-01	9.999109e-01	9.999109e-01	9.999109e-01	9.999109e-01	
180	1.579809e-09	9.999109e-01	9.999109e-01	9.999109e-01	9.999109e-01	9.999109e-01	9.999109e-01	9.999109e-01	
181	1.589809e-09	9.999109e-01	9.999109e-01	9.999109e-01	9.999109e-01	9.999109e-01	9.999109e-01	9.999109e-01	
182	1.599809e-09	9.999109e-01	9.999109e-01	9.999109e-01	9.999109e-01	9.999109e-01	9.999109e-01	9.999109e-01	
183	1.609809e-09	9.999109e-01	9.999109e-01	9.999109e-01	9.999109e-01	9.999109e-01	9.999109e-01	9.999109e-01	
184	1.619809e-09	9.999109e-01	9.999109e-01	9.999109e-01	9.999109e-01	9.999109e-01	9.999109e-01	9.999109e-01	
185	1.629809e-09	9.999109e-01	9.999109e-01	9.999109e-01	9.999109e-01	9.999109e-01	9.999109e-01	9.999109e-01	
186	1.639809e-09	9.999109e-01	9.999109e-01	9.999109e-01	9.999109e-01	9.999109e-01	9.999109e-01	9.999109e-01	
187	1.649809e-09	9.999109e-01	9.999109e-01	9.999109e-01	9.999109e-01	9.999109e-01	9.999109e-01	9.999109e-01	
188	1.659809e-09	9.999109e-01	9.999109e-01	9.999109e-01	9.999109e-01	9.999109e-01	9.999109e-01	9.999109e-01	
189	1.669809e-09	9.999109e-01	9.999109e-01	9.999109e-01	9.999109e-01	9.999109e-01	9.999109e-01	9.999109e-01	
190	1.679809e-09	9.999109e-01	9.999109e-01	9.999109e-01	9.999109e-01	9.999109e-01	9.999109e-01	9.999109e-01	
191	1.689809e-09	9.999109e-01	9.999109e-01	9.999109e-01	9.999109e-01	9.999109e-01	9.999109e-01	9.999109e-01	
192	1.699809e-09	9.999109e-01	9.999109e-01	9.999109e-01	9.999109e-01	9.999109e-01	9.999109e-01	9.999109e-01	
193	1.709809e-09	9.999109e-01	9.999109e-01	9.999109e-01	9.999109e-01	9.999109e-01	9.999109e-01	9.999109e-01	
194	1.719809e-09	9.999109e-01	9.999109e-01	9.999109e-01	9.999109e-01	9.999109e-01	9.999109e-01	9.999109e-01	
195	1.729809e-09	9.999109e-01	9.999109e-01	9.999109e-01	9.999109e-01	9.999109e-01	9.999109e-01	9.999109e-01	
196	1.739809e-09	9.999109e-01	9.999109e-01	9.999109e-01	9.999109e-01	9.999109e-01	9.999109e-01	9.999109e-01	
197	1.749809e-09	9.999109e-01	9.999109e-01	9.999109e-01	9.999109e-01	9.999109e-01	9.999109e-01	9.999109e-01	
198	1.759809e-09	9.999109e-01	9.999109e-01	9.999109e-01	9.999109e-01	9.999109e-01	9.999109e-01	9.999109e-01	
199	1.769809e-09	9.999109e-01	9.999109e-01	9.999109e-01	9.999109e-01	9.999109e-01	9.999109e-01	9.999109e-01	
200	1.779809e-09	9.999109e-01	9.999109e-01	9.999109e-01	9.999109e-01	9.999109e-01	9.999109e-01	9.999109e-01	
201	1.789809e-09	9.999109e-01	9.999109e-01	9.999109e-01	9.999109e-01	9.999109e-01	9.999109e-01	9.999109e-01	
202	1.799809e-09	9.999109e-01	9.999109e-01	9.999109e-01	9.999109e-01	9.999109e-01	9.999109e-01	9.999109e-01	
203	1.809809e-09	9.999109e-01	9.999109e-01	9.999109e-01	9.999109e-01	9.999109e-01	9.999109e-01	9.999109e-01	
204	1.819809e-09	9.999109e-01	9.999109e-01	9.999109e-01	9.999109e-01	9.999109e-01	9.999109e-01	9.999109e-01	
205	1.829809e-09	9.999109e-01	9.999109e-01	9.999109e-01	9.999109e-01	9.999109e-01	9.999109e-01	9.999109e-01	
206	1.839809e-09	9.999109e-01	9.999109e-01	9.999109e-01	9.999109e-01	9.999109e-01	9.999109e-01	9.999109e-01	
207	1.849809e-09	9.999109e-01	9.999109e-01	9.999109e-01	9.999109e-01	9.999109e-01	9.999109e-01	9.999109e-01	
208	1.859809e-09	9.999109e-01	9.999109e-01	9.999109e-01	9.999109e-01	9.999109e-01	9.999109e-01	9.999109e-01	
209	1.869809e-09	9.999109e-01	9.999109e-01	9.999109e-01	9.999109e-01	9.999109e-01	9.999109e-01	9.999109e-01	
210	1.879809e-09	9.999109e-01	9.999109e-01	9.999109e-01	9.999109e-01	9.999109e-01	9.999109e-01	9.999109e-01	
211	1.889809e-09	9.999109e-01	9.999109e-01	9.999109e-01	9.999109e-01	9.999109e-01	9.999109e-01	9.999109e-01	
212	1.899809e-09	9.999109e-01	9.999109e-01	9.999109e-01	9.999109e-01	9.999109e-01	9.999109e-01	9.999109e-01	
213	1.909809e-09	9.999109e-01	9.999109e-01	9.999109e-01	9.999109e-01	9.999109e-01	9.999109e-01	9.999109e-01	
214	1.919809e-09	9.999109e-01	9.999109e-01	9.999109e-01	9.999109e-01	9.999109e-01	9.999109e-01	9.999109e-01	
215	1.929809e-09	9.999109e-01	9.999109e-01	9.999109e-01	9.999109e-01	9.999109e-01	9.999109e-01	9.999109e-01	
216	1.939809e-09	9.999109e-01	9.999109e-01	9.999109e-01	9.999109e-01	9.999109e-01	9.999109e-01	9.999109e-01	
217	1.949809e-09	9.999109e-01	9.999109e-01	9.999109e-01	9.999109e-01	9.999109e-01	9.999109e-01	9.999109e-01	
218	1.959809e-09	9.999109e-01	9.999109e-01	9.999109e-01	9.999109e-01	9.999109e-01	9.999109e-01	9.999109e-01	
219	1.969809e-09	9.999109e-01	9.999109e-01	9.999109e-01	9.999109e-01	9.999109e-01	9.999109e-01	9.999109e-01	
220	1.979809e-09	9.999109e-01	9.999109e-01	9.999109e-01	9.999109e-01	9.999109e-01	9.999109e-01	9.999109e-01	
221	1.989809e-09	9.999109e-01	9.999109e-01	9.999109e-01	9.999109e-01	9.999109e-01	9.999109e-01	9.999109e-01	
222	1.999809e-09	9.999109e-01	9.999109e-01	9.999109e-01	9.999109e-01	9.999109e-01	9.999109e-01	9.999109e-01	
223	2.000000e-09	9.999109e-01	9.999109e-01	9.999109e-01	9.999109e-01	9.999109e-01	9.999109e-01	9.999109e-01	

CPU time since last call: 0.608 seconds.

Total CPU time: 0.608 seconds.

Total DRAM available = 3034.875000 MB.
DRAM currently available = 2327.261719 MB.
Total ngspice program size = 7.457031 MB.
Resident set size = 3.141602 MB.
Shared ngspice pages = 464.000 kB.
Text (code) pages = 1.378906 MB.
Stack = 0 bytes.
Library pages = 5.624023 MB.

