
Circuit: * spice from s1s

Doing analysis at TEMP = 75.000000 and TNOM = 27.000000


Initial Transient Solution
--------------------------

Node                                   Voltage
----                                   -------
n0                                           0
n8                                           0
n9                                           1
n10                                          1
n11                                          0
n12                                          0
n13                                          1
n1                                           1
n14                                          1
n15                                          0
n16                                          1
n17                                          0
n2                                           0
n22                                          0
n23                                          1
n24                                          0
n25                                          1
n5                                           0
n18                                          0
n19                                          1
n20                                          0
n21                                          1
n3                                           1
n4                                           1
n6                                           1
n7                                           1
nseg_node_26                                 0
nseg_node_27                                 0
nseg_node_28                                 0
nseg_node_29                                 0
nseg_node_30                                 0
nseg_node_31                                 0
nseg_node_32                                 0
nseg_node_33                                 0
nseg_node_34                                 0
nseg_node_35                                 0
nseg_node_36                                 0
nseg_node_37                                 0
nseg_node_38                                 0
nseg_node_39                                 0
nseg_node_40                                 0
nseg_node_41                                 0
nseg_node_42                                 0
nseg_node_43                                 0
nseg_node_44                                 0
gin                                          1
vdd                                          1
vdt#branch                                   0
vdd#branch                        -1.23827e-05


No. of Data Rows : 216

                                                                                                                * spice from s1s
                                                                                                                Transient Analysis  Sat Feb  7 10:35:13  2009
------------------------------------------------------------------------------------------------------------------------------------------------------------------------------------------------------------------------------------------------
Index   time            v(gin)          v(n8)           v(n10)          v(n12)          v(n14)          v(n22)          v(n24)          v(n16)          v(n18)          v(n20)          v(n3)           v(n4)           v(n6)           
------------------------------------------------------------------------------------------------------------------------------------------------------------------------------------------------------------------------------------------------
0	0.000000e+00	1.000000e+00	0.000000e+00	1.000000e+00	0.000000e+00	1.000000e+00	0.000000e+00	0.000000e+00	1.000000e+00	0.000000e+00	0.000000e+00	1.000000e+00	1.000000e+00	1.000000e+00	
1	1.000000e-13	1.000000e+00	-9.149009e-04	9.439658e-01	-7.913017e-04	9.983407e-01	-2.108142e-03	-2.108142e-03	9.983428e-01	-1.843934e-03	-1.843932e-03	9.673362e-01	9.673362e-01	9.673440e-01	
2	1.855190e-13	1.000000e+00	-2.101727e-03	9.022586e-01	-1.822021e-03	9.959882e-01	-4.301525e-03	-4.301525e-03	9.959937e-01	-3.951151e-03	-3.951144e-03	9.409098e-01	9.409098e-01	9.409235e-01	
3	3.565571e-13	1.000000e+00	-4.951527e-03	8.293046e-01	-4.306041e-03	9.898628e-01	-9.028753e-03	-9.028753e-03	9.898771e-01	-8.492914e-03	-8.492892e-03	8.909322e-01	8.909322e-01	8.909565e-01	
4	6.986333e-13	1.000000e+00	-1.143497e-02	7.295486e-01	-9.999451e-03	9.726234e-01	-1.852573e-02	-1.852573e-02	9.726662e-01	-1.689451e-02	-1.689446e-02	8.066335e-01	8.066335e-01	8.066724e-01	
5	1.382786e-12	1.000000e+00	-2.020856e-02	6.234512e-01	-1.772591e-02	9.355072e-01	-3.092153e-02	-3.092153e-02	9.356155e-01	-2.686824e-02	-2.686818e-02	6.871407e-01	6.871407e-01	6.871945e-01	
6	2.291444e-12	1.000000e+00	-2.258184e-02	5.656563e-01	-1.941797e-02	8.961696e-01	-3.503482e-02	-3.503482e-02	8.963232e-01	-3.068366e-02	-3.068362e-02	5.988833e-01	5.988833e-01	5.989395e-01	
7	3.505801e-12	1.000000e+00	-1.887718e-02	5.426230e-01	-1.429121e-02	8.639665e-01	-3.138120e-02	-3.138120e-02	8.640897e-01	-2.854622e-02	-2.854621e-02	5.516864e-01	5.516864e-01	5.517165e-01	
8	5.242811e-12	1.000000e+00	-1.245193e-02	5.509032e-01	-3.527938e-03	8.437425e-01	-2.351623e-02	-2.351623e-02	8.437706e-01	-2.239237e-02	-2.239237e-02	5.478305e-01	5.478305e-01	5.477872e-01	
9	7.860642e-12	1.000000e+00	-6.149340e-03	5.920014e-01	1.253886e-02	8.411373e-01	-1.454170e-02	-1.454170e-02	8.410932e-01	-1.459519e-02	-1.459519e-02	5.879398e-01	5.879398e-01	5.877937e-01	
10	1.133296e-11	1.000000e+00	-2.166198e-03	6.557194e-01	2.865614e-02	8.557276e-01	-7.420129e-03	-7.420129e-03	8.556887e-01	-7.969413e-03	-7.969415e-03	6.546037e-01	6.546037e-01	6.543954e-01	
11	1.633707e-11	1.000000e+00	5.730345e-04	7.371961e-01	3.852557e-02	8.817178e-01	-1.174091e-03	-1.174091e-03	8.817007e-01	-1.933932e-03	-1.933935e-03	7.375906e-01	7.375906e-01	7.373911e-01	
12	2.246696e-11	1.000000e+00	2.254310e-03	8.148725e-01	3.598255e-02	9.087156e-01	3.223979e-03	3.223979e-03	9.087077e-01	2.477011e-03	2.477008e-03	8.140931e-01	8.140931e-01	8.139507e-01	
13	3.102337e-11	1.000000e+00	3.053650e-03	8.882876e-01	2.517878e-02	9.363672e-01	5.757461e-03	5.757461e-03	9.363634e-01	5.200926e-03	5.200923e-03	8.862815e-01	8.862815e-01	8.862020e-01	
14	4.102337e-11	1.000000e+00	2.782188e-03	9.387770e-01	1.489048e-02	9.583069e-01	5.898706e-03	5.898706e-03	9.583066e-01	5.601291e-03	5.601289e-03	9.366547e-01	9.366547e-01	9.366162e-01	
15	5.102337e-11	1.000000e+00	2.115076e-03	9.666126e-01	8.624234e-03	9.727442e-01	4.874417e-03	4.874417e-03	9.727445e-01	4.780635e-03	4.780633e-03	9.648437e-01	9.648437e-01	9.648255e-01	
16	6.102337e-11	1.000000e+00	1.477850e-03	9.818414e-01	4.970263e-03	9.822102e-01	3.656542e-03	3.656542e-03	9.822098e-01	3.677568e-03	3.677567e-03	9.805178e-01	9.805178e-01	9.805088e-01	
17	7.102337e-11	1.000000e+00	9.910207e-04	9.900986e-01	2.877721e-03	9.883879e-01	2.599107e-03	2.599107e-03	9.883880e-01	2.678438e-03	2.678437e-03	9.891944e-01	9.891944e-01	9.891896e-01	
18	8.102337e-11	1.000000e+00	6.523362e-04	9.946045e-01	1.687331e-03	9.924199e-01	1.792477e-03	1.792477e-03	9.924191e-01	1.883949e-03	1.883948e-03	9.939908e-01	9.939908e-01	9.939877e-01	
19	9.102337e-11	1.000000e+00	4.335503e-04	9.970240e-01	1.006675e-03	9.950401e-01	1.216012e-03	1.216012e-03	9.950400e-01	1.305852e-03	1.305851e-03	9.966391e-01	9.966391e-01	9.966368e-01	
20	1.010234e-10	1.000000e+00	2.943223e-04	9.983546e-01	6.202564e-04	9.967483e-01	8.225571e-04	8.225571e-04	9.967476e-01	8.950647e-04	8.950644e-04	9.981012e-01	9.981012e-01	9.980994e-01	
21	1.110234e-10	1.000000e+00	2.113398e-04	9.990584e-01	3.974704e-04	9.978547e-01	5.602887e-04	5.602887e-04	9.978547e-01	6.205496e-04	6.205496e-04	9.989091e-01	9.989091e-01	9.989075e-01	
22	1.210234e-10	1.000000e+00	1.596273e-04	9.994543e-01	2.700971e-04	9.985769e-01	3.898093e-04	3.898093e-04	9.985764e-01	4.320323e-04	4.320321e-04	9.993556e-01	9.993556e-01	9.993543e-01	
23	1.310234e-10	1.000000e+00	1.310564e-04	9.996568e-01	1.958141e-04	9.990428e-01	2.796914e-04	2.796914e-04	9.990428e-01	3.135001e-04	3.135001e-04	9.996029e-01	9.996029e-01	9.996018e-01	
24	1.410234e-10	1.000000e+00	1.125289e-04	9.997768e-01	1.527950e-04	9.993479e-01	2.102566e-04	2.102566e-04	9.993475e-01	2.312027e-04	2.312026e-04	9.997396e-01	9.997396e-01	9.997387e-01	
25	1.510234e-10	1.000000e+00	1.036330e-04	9.998334e-01	1.275334e-04	9.995435e-01	1.658626e-04	1.658626e-04	9.995435e-01	1.834741e-04	1.834742e-04	9.998158e-01	9.998158e-01	9.998151e-01	
26	1.610234e-10	1.000000e+00	9.677677e-05	9.998712e-01	1.124543e-04	9.996725e-01	1.386355e-04	1.386355e-04	9.996723e-01	1.476998e-04	1.476997e-04	9.998577e-01	9.998577e-01	9.998572e-01	
27	1.710234e-10	1.000000e+00	9.458148e-05	9.998858e-01	1.037925e-04	9.997543e-01	1.210352e-04	1.210352e-04	9.997544e-01	1.301519e-04	1.301520e-04	9.998814e-01	9.998814e-01	9.998811e-01	
28	1.810234e-10	1.000000e+00	9.166939e-05	9.998988e-01	9.816617e-05	9.998090e-01	1.106964e-04	1.106964e-04	9.998088e-01	1.138432e-04	1.138431e-04	9.998943e-01	9.998943e-01	9.998940e-01	
29	1.910234e-10	1.000000e+00	9.165461e-05	9.999017e-01	9.530762e-05	9.998430e-01	1.036717e-04	1.036717e-04	9.998430e-01	1.086936e-04	1.086936e-04	9.999018e-01	9.999018e-01	9.999016e-01	
30	2.000000e-10	1.000000e+00	9.010549e-05	9.999064e-01	9.310814e-05	9.998643e-01	1.002744e-04	1.002744e-04	9.998642e-01	1.007749e-04	1.007748e-04	9.999053e-01	9.999053e-01	9.999052e-01	
31	2.010000e-10	9.920000e-01	4.185982e-05	9.999057e-01	9.320590e-05	9.998659e-01	9.977425e-05	9.977425e-05	9.998658e-01	1.018944e-04	1.018944e-04	9.999057e-01	9.999057e-01	9.999056e-01	
32	2.030000e-10	9.760000e-01	-1.232135e-04	9.999043e-01	9.286688e-05	9.998691e-01	9.915438e-05	9.915438e-05	9.998691e-01	1.011869e-04	1.011869e-04	9.999063e-01	9.999063e-01	9.999062e-01	
33	2.070000e-10	9.440000e-01	-5.791887e-04	9.998984e-01	9.231327e-05	9.998752e-01	9.812241e-05	9.812241e-05	9.998752e-01	9.975218e-05	9.975217e-05	9.999072e-01	9.999072e-01	9.999071e-01	
34	2.150000e-10	8.800000e-01	-1.181886e-03	9.998872e-01	9.139491e-05	9.998846e-01	9.649635e-05	9.649635e-05	9.998846e-01	9.774378e-05	9.774378e-05	9.999086e-01	9.999086e-01	9.999085e-01	
35	2.250000e-10	8.000000e-01	-6.452709e-04	9.998992e-01	9.096886e-05	9.998927e-01	9.520539e-05	9.520539e-05	9.998927e-01	9.593203e-05	9.593203e-05	9.999096e-01	9.999096e-01	9.999095e-01	
36	2.350000e-10	7.200000e-01	3.348469e-03	9.999634e-01	9.140302e-05	9.998978e-01	9.436579e-05	9.436579e-05	9.998978e-01	9.492164e-05	9.492164e-05	9.999102e-01	9.999102e-01	9.999101e-01	
37	2.450000e-10	6.400000e-01	1.520209e-02	1.000131e+00	9.290287e-05	9.999013e-01	9.388737e-05	9.388737e-05	9.999013e-01	9.416029e-05	9.416028e-05	9.999105e-01	9.999105e-01	9.999105e-01	
38	2.550000e-10	5.600000e-01	4.134017e-02	1.000467e+00	9.585890e-05	9.999034e-01	9.354864e-05	9.354864e-05	9.999034e-01	9.381049e-05	9.381049e-05	9.999107e-01	9.999107e-01	9.999107e-01	
39	2.650000e-10	4.800000e-01	9.316929e-02	1.001043e+00	1.004569e-04	9.999049e-01	9.338135e-05	9.338135e-05	9.999049e-01	9.346307e-05	9.346307e-05	9.999108e-01	9.999108e-01	9.999108e-01	
40	2.750000e-10	4.000000e-01	1.856889e-01	1.001511e+00	1.023749e-04	9.999058e-01	9.323370e-05	9.323370e-05	9.999058e-01	9.337275e-05	9.337275e-05	9.999108e-01	9.999108e-01	9.999108e-01	
41	2.850000e-10	3.200000e-01	3.208547e-01	9.969518e-01	4.812543e-05	9.999060e-01	9.318125e-05	9.318125e-05	9.999060e-01	9.318428e-05	9.318427e-05	9.999109e-01	9.999109e-01	9.999109e-01	
42	2.950000e-10	2.400000e-01	4.823449e-01	9.665708e-01	-2.834250e-04	9.999034e-01	9.307966e-05	9.307966e-05	9.999034e-01	9.317106e-05	9.317106e-05	9.999109e-01	9.999109e-01	9.999109e-01	
43	3.050000e-10	1.600000e-01	6.422979e-01	8.691877e-01	-1.154794e-03	9.998950e-01	9.299980e-05	9.299980e-05	9.998950e-01	9.297889e-05	9.297888e-05	9.999109e-01	9.999109e-01	9.999109e-01	
44	3.150000e-10	8.000000e-02	7.714679e-01	6.876825e-01	1.672844e-03	9.999139e-01	9.312842e-05	9.312842e-05	9.999139e-01	9.317496e-05	9.317496e-05	9.999109e-01	9.999109e-01	9.999109e-01	
45	3.250000e-10	0.000000e+00	8.608630e-01	4.674171e-01	3.725186e-02	1.000222e+00	9.597127e-05	9.597127e-05	1.000222e+00	9.560316e-05	9.560316e-05	9.999109e-01	9.999109e-01	9.999109e-01	
46	3.260000e-10	0.000000e+00	8.676139e-01	4.456959e-01	4.485646e-02	1.000289e+00	9.657182e-05	9.657182e-05	1.000289e+00	9.619142e-05	9.619142e-05	9.999110e-01	9.999110e-01	9.999109e-01	
47	3.280000e-10	0.000000e+00	8.806272e-01	4.034624e-01	6.265115e-02	1.000446e+00	9.801769e-05	9.801769e-05	1.000446e+00	9.749145e-05	9.749145e-05	9.999110e-01	9.999110e-01	9.999110e-01	
48	3.320000e-10	0.000000e+00	9.036954e-01	3.275101e-01	1.137047e-01	1.000918e+00	1.024275e-04	1.024275e-04	1.000918e+00	1.014917e-04	1.014917e-04	9.999110e-01	9.999110e-01	9.999110e-01	
49	3.400000e-10	0.000000e+00	9.382742e-01	2.109423e-01	2.621002e-01	1.001474e+00	1.082437e-04	1.082437e-04	1.001474e+00	1.075149e-04	1.075149e-04	9.999111e-01	9.999111e-01	9.999111e-01	
50	3.500000e-10	0.000000e+00	9.649055e-01	1.197558e-01	4.789870e-01	9.872485e-01	-2.421931e-05	-2.421931e-05	9.872523e-01	-8.851259e-06	-8.851371e-06	9.999095e-01	9.999095e-01	9.999097e-01	
51	3.600000e-10	0.000000e+00	9.800984e-01	6.714278e-02	6.682069e-01	9.199982e-01	-6.317595e-04	-6.317595e-04	9.200142e-01	-5.631174e-04	-5.631178e-04	9.999015e-01	9.999015e-01	9.999024e-01	
52	3.700000e-10	0.000000e+00	9.887142e-01	3.731783e-02	7.994597e-01	7.772357e-01	-9.489783e-04	-9.489783e-04	7.772650e-01	-9.167151e-04	-9.167152e-04	9.998962e-01	9.998962e-01	9.998967e-01	
53	3.800000e-10	0.000000e+00	9.936028e-01	2.109134e-02	8.807287e-01	5.922280e-01	9.183370e-03	9.183370e-03	5.922531e-01	8.002128e-03	8.002136e-03	1.000024e+00	1.000024e+00	1.000009e+00	
54	3.900000e-10	0.000000e+00	9.963567e-01	1.187980e-02	9.301585e-01	4.175361e-01	6.213843e-02	6.213843e-02	4.174965e-01	5.579173e-02	5.579176e-02	1.000711e+00	1.000711e+00	1.000631e+00	
55	4.000000e-10	0.000000e+00	9.979145e-01	6.830261e-03	9.596676e-01	2.848290e-01	1.854246e-01	1.854246e-01	2.846665e-01	1.698434e-01	1.698435e-01	1.001870e+00	1.001870e+00	1.001806e+00	
56	4.100000e-10	0.000000e+00	9.987835e-01	3.888305e-03	9.764336e-01	1.949000e-01	3.591376e-01	3.591376e-01	1.947433e-01	3.348764e-01	3.348765e-01	9.956185e-01	9.956185e-01	9.975255e-01	
57	4.200000e-10	0.000000e+00	9.992797e-01	2.272565e-03	9.862077e-01	1.330894e-01	5.348057e-01	5.348057e-01	1.330765e-01	5.060344e-01	5.060345e-01	9.529272e-01	9.529272e-01	9.634384e-01	
58	4.300000e-10	0.000000e+00	9.995513e-01	1.315407e-03	9.917838e-01	8.970905e-02	6.778906e-01	6.778906e-01	8.978662e-02	6.498547e-01	6.498548e-01	8.355347e-01	8.355347e-01	8.613582e-01	
59	4.400000e-10	0.000000e+00	9.997112e-01	8.012063e-04	9.950110e-01	6.007893e-02	7.809280e-01	7.809280e-01	6.012668e-02	7.560639e-01	7.560639e-01	6.425009e-01	6.425009e-01	6.827322e-01	
60	4.500000e-10	0.000000e+00	9.997945e-01	4.864206e-04	9.969671e-01	4.024476e-02	8.533730e-01	8.533730e-01	4.029060e-02	8.319757e-01	8.319758e-01	4.245585e-01	4.245585e-01	4.676294e-01	
61	4.600000e-10	0.000000e+00	9.998476e-01	3.259412e-04	9.980685e-01	2.703439e-02	9.047084e-01	9.047084e-01	2.708529e-02	8.871283e-01	8.871284e-01	2.452924e-01	2.452924e-01	2.777447e-01	
62	4.700000e-10	0.000000e+00	9.998719e-01	2.193309e-04	9.988108e-01	1.823737e-02	9.394538e-01	9.394538e-01	1.829774e-02	9.260875e-01	9.260876e-01	1.321779e-01	1.321779e-01	1.514927e-01	
63	4.800000e-10	0.000000e+00	9.998906e-01	1.709280e-04	9.991812e-01	1.227511e-02	9.616652e-01	9.616652e-01	1.233343e-02	9.518442e-01	9.518442e-01	6.982723e-02	6.982723e-02	8.046961e-02	
64	4.900000e-10	0.000000e+00	9.998966e-01	1.323070e-04	9.994887e-01	8.283804e-03	9.762249e-01	9.762249e-01	8.326557e-03	9.691739e-01	9.691739e-01	3.638747e-02	3.638747e-02	4.210056e-02	
65	5.000000e-10	0.000000e+00	9.999040e-01	1.192437e-04	9.996032e-01	5.554033e-03	9.852432e-01	9.852432e-01	5.589711e-03	9.803396e-01	9.803396e-01	1.891992e-02	1.891992e-02	2.193729e-02	
66	5.100000e-10	0.000000e+00	9.999047e-01	1.035831e-04	9.997470e-01	3.753770e-03	9.909577e-01	9.909577e-01	3.777398e-03	9.875702e-01	9.875702e-01	9.829406e-03	9.829406e-03	1.141963e-02	
67	5.200000e-10	0.000000e+00	9.999082e-01	1.014683e-04	9.997723e-01	2.506066e-03	9.944521e-01	9.944521e-01	2.525137e-03	9.921769e-01	9.921769e-01	5.137099e-03	5.137099e-03	5.977767e-03	
68	5.300000e-10	0.000000e+00	9.999074e-01	9.400853e-05	9.998486e-01	1.709059e-03	9.965924e-01	9.965924e-01	1.720133e-03	9.950560e-01	9.950560e-01	2.698834e-03	2.698834e-03	3.142132e-03	
69	5.400000e-10	0.000000e+00	9.999094e-01	9.504558e-05	9.998439e-01	1.141272e-03	9.979192e-01	9.979192e-01	1.150923e-03	9.969128e-01	9.969128e-01	1.450999e-03	1.450999e-03	1.690584e-03	
70	5.500000e-10	0.000000e+00	9.999083e-01	9.082058e-05	9.998891e-01	7.989728e-04	9.986888e-01	9.986888e-01	8.035034e-04	9.980170e-01	9.980170e-01	7.917845e-04	7.917845e-04	9.187621e-04	
71	5.600000e-10	0.000000e+00	9.999097e-01	9.254552e-05	9.998759e-01	5.400380e-04	9.991955e-01	9.991955e-01	5.449288e-04	9.987653e-01	9.987653e-01	4.613844e-04	4.613844e-04	5.329581e-04	
72	5.700000e-10	0.000000e+00	9.999087e-01	8.980052e-05	9.999050e-01	3.996474e-04	9.994574e-01	9.994574e-01	4.011262e-04	9.991702e-01	9.991702e-01	2.785717e-04	2.785717e-04	3.163677e-04	
73	5.800000e-10	0.000000e+00	9.999097e-01	9.146755e-05	9.998909e-01	2.794717e-04	9.996586e-01	9.996586e-01	2.820807e-04	9.994801e-01	9.994801e-01	1.922935e-04	1.922935e-04	2.150771e-04	
74	5.900000e-10	0.000000e+00	9.999089e-01	8.952605e-05	9.999107e-01	2.265128e-04	9.997377e-01	9.997377e-01	2.266943e-04	9.996159e-01	9.996159e-01	1.392256e-04	1.392256e-04	1.509347e-04	
75	6.000000e-10	0.000000e+00	9.999096e-01	9.094193e-05	9.998984e-01	1.683731e-04	9.998245e-01	9.998245e-01	1.698947e-04	9.997530e-01	9.997530e-01	1.177125e-04	1.177125e-04	1.255234e-04	
76	6.100000e-10	0.000000e+00	9.999091e-01	8.950535e-05	9.999124e-01	1.520369e-04	9.998402e-01	9.998402e-01	1.517294e-04	9.997880e-01	9.997880e-01	1.010720e-04	1.010720e-04	1.048052e-04	
77	6.200000e-10	0.000000e+00	9.999096e-01	9.065118e-05	9.999023e-01	1.218339e-04	9.998829e-01	9.998829e-01	1.228181e-04	9.998561e-01	9.998561e-01	9.645622e-05	9.645622e-05	9.935070e-05	
78	6.300000e-10	0.000000e+00	9.999091e-01	8.956402e-05	9.999125e-01	1.200589e-04	9.998784e-01	9.998784e-01	1.196110e-04	9.998548e-01	9.998548e-01	9.059364e-05	9.059364e-05	9.178416e-05	
79	6.400000e-10	0.000000e+00	9.999095e-01	9.047163e-05	9.999046e-01	1.027770e-04	9.999028e-01	9.999028e-01	1.034735e-04	9.998945e-01	9.998945e-01	9.014455e-05	9.014455e-05	9.130279e-05	
80	6.500000e-10	0.000000e+00	9.999092e-01	8.963973e-05	9.999120e-01	1.062227e-04	9.998932e-01	9.998932e-01	1.057742e-04	9.998812e-01	9.998812e-01	8.775221e-05	8.775221e-05	8.810978e-05	
81	6.600000e-10	0.000000e+00	9.999095e-01	9.035114e-05	9.999059e-01	9.524791e-05	9.999091e-01	9.999091e-01	9.577245e-05	9.999083e-01	9.999083e-01	8.815380e-05	8.815380e-05	8.865260e-05	
82	6.700000e-10	0.000000e+00	9.999092e-01	8.971090e-05	9.999115e-01	1.000978e-04	9.998993e-01	9.998993e-01	9.969795e-05	9.998919e-01	9.998919e-01	8.702221e-05	8.702221e-05	8.710773e-05	
83	6.800000e-10	0.000000e+00	9.999094e-01	9.026562e-05	9.999068e-01	9.247305e-05	9.999106e-01	9.999106e-01	9.288266e-05	9.999129e-01	9.999129e-01	8.747009e-05	8.747009e-05	8.770061e-05	
84	6.900000e-10	0.000000e+00	9.999093e-01	8.977129e-05	9.999110e-01	9.725881e-05	9.999022e-01	9.999022e-01	9.691974e-05	9.998967e-01	9.998967e-01	8.686658e-05	8.686658e-05	8.686846e-05	
85	7.000000e-10	0.000000e+00	9.999094e-01	9.020274e-05	9.999074e-01	9.161120e-05	9.999105e-01	9.999105e-01	9.193703e-05	9.999141e-01	9.999141e-01	8.720806e-05	8.720806e-05	8.732206e-05	
86	7.100000e-10	0.000000e+00	9.999093e-01	8.982025e-05	9.999106e-01	9.583939e-05	9.999037e-01	9.999037e-01	9.555880e-05	9.998989e-01	9.998989e-01	8.685743e-05	8.685743e-05	8.683852e-05	
87	7.200000e-10	0.000000e+00	9.999094e-01	9.015553e-05	9.999079e-01	9.148660e-05	9.999101e-01	9.999101e-01	9.174796e-05	9.999141e-01	9.999141e-01	8.709451e-05	8.709451e-05	8.715460e-05	
88	7.300000e-10	0.000000e+00	9.999093e-01	8.985906e-05	9.999103e-01	9.505306e-05	9.999047e-01	9.999047e-01	9.482385e-05	9.999002e-01	9.999002e-01	8.687816e-05	8.687816e-05	8.685810e-05	
89	7.400000e-10	0.000000e+00	9.999094e-01	9.011966e-05	9.999082e-01	9.162109e-05	9.999096e-01	9.999096e-01	9.183141e-05	9.999137e-01	9.999137e-01	8.703918e-05	8.703918e-05	8.707278e-05	
90	7.500000e-10	0.000000e+00	9.999093e-01	8.988945e-05	9.999100e-01	9.456601e-05	9.999053e-01	9.999053e-01	9.438016e-05	9.999011e-01	9.999011e-01	8.689935e-05	8.689935e-05	8.688313e-05	
91	7.600000e-10	0.000000e+00	9.999094e-01	9.009220e-05	9.999084e-01	9.182564e-05	9.999091e-01	9.999091e-01	9.199501e-05	9.999132e-01	9.999132e-01	8.700947e-05	8.700947e-05	8.702932e-05	
92	7.700000e-10	0.000000e+00	9.999093e-01	8.991310e-05	9.999098e-01	9.423362e-05	9.999058e-01	9.999058e-01	9.408359e-05	9.999017e-01	9.999017e-01	8.691538e-05	8.691538e-05	8.690331e-05	
93	7.800000e-10	0.000000e+00	9.999094e-01	9.007110e-05	9.999086e-01	9.202945e-05	9.999088e-01	9.999088e-01	9.216584e-05	9.999127e-01	9.999127e-01	8.699229e-05	8.699229e-05	8.700469e-05	
94	7.900000e-10	0.000000e+00	9.999093e-01	8.993144e-05	9.999097e-01	9.399052e-05	9.999061e-01	9.999061e-01	9.386975e-05	9.999022e-01	9.999022e-01	8.692653e-05	8.692653e-05	8.691769e-05	
95	8.000000e-10	0.000000e+00	9.999094e-01	9.005486e-05	9.999087e-01	9.220923e-05	9.999085e-01	9.999085e-01	9.231903e-05	9.999123e-01	9.999123e-01	8.698180e-05	8.698180e-05	8.699001e-05	
96	8.100000e-10	0.000000e+00	9.999093e-01	8.994563e-05	9.999096e-01	9.380498e-05	9.999064e-01	9.999064e-01	9.370794e-05	9.999027e-01	9.999027e-01	8.693409e-05	8.693409e-05	8.692751e-05	
97	8.200000e-10	0.000000e+00	9.999094e-01	9.004233e-05	9.999088e-01	9.236011e-05	9.999083e-01	9.999083e-01	9.244851e-05	9.999119e-01	9.999119e-01	8.697511e-05	8.697511e-05	8.698092e-05	
98	8.300000e-10	0.000000e+00	9.999093e-01	8.995660e-05	9.999095e-01	9.365995e-05	9.999066e-01	9.999066e-01	9.358204e-05	9.999031e-01	9.999031e-01	8.693922e-05	8.693922e-05	8.693412e-05	
99	8.400000e-10	0.000000e+00	9.999094e-01	9.003267e-05	9.999089e-01	9.248386e-05	9.999081e-01	9.999081e-01	9.255506e-05	9.999116e-01	9.999116e-01	8.697070e-05	8.697070e-05	8.697511e-05	
100	8.500000e-10	0.000000e+00	9.999093e-01	8.996508e-05	9.999094e-01	9.354512e-05	9.999067e-01	9.999067e-01	9.348260e-05	9.999034e-01	9.999034e-01	8.694275e-05	8.694275e-05	8.693857e-05	
101	8.600000e-10	0.000000e+00	9.999094e-01	9.002520e-05	9.999089e-01	9.258426e-05	9.999080e-01	9.999080e-01	9.264167e-05	9.999112e-01	9.999112e-01	8.696769e-05	8.696769e-05	8.697129e-05	
102	8.700000e-10	0.000000e+00	9.999093e-01	8.997164e-05	9.999094e-01	9.345360e-05	9.999069e-01	9.999069e-01	9.340340e-05	9.999037e-01	9.999037e-01	8.694522e-05	8.694522e-05	8.694161e-05	
103	8.800000e-10	0.000000e+00	9.999094e-01	9.001944e-05	9.999090e-01	9.266528e-05	9.999079e-01	9.999079e-01	9.271166e-05	9.999109e-01	9.999109e-01	8.696559e-05	8.696559e-05	8.696871e-05	
104	8.900000e-10	0.000000e+00	9.999093e-01	8.997671e-05	9.999094e-01	9.338038e-05	9.999069e-01	9.999069e-01	9.334005e-05	9.999040e-01	9.999040e-01	8.694698e-05	8.694698e-05	8.694373e-05	
105	9.000000e-10	0.000000e+00	9.999094e-01	9.001498e-05	9.999090e-01	9.273051e-05	9.999078e-01	9.999078e-01	9.276808e-05	9.999107e-01	9.999107e-01	8.696408e-05	8.696408e-05	8.696691e-05	
106	9.100000e-10	0.000000e+00	9.999093e-01	8.998062e-05	9.999093e-01	9.332169e-05	9.999070e-01	9.999070e-01	9.328922e-05	9.999042e-01	9.999042e-01	8.694826e-05	8.694826e-05	8.694523e-05	
107	9.200000e-10	0.000000e+00	9.999093e-01	9.001153e-05	9.999090e-01	9.278299e-05	9.999078e-01	9.999078e-01	9.281352e-05	9.999104e-01	9.999104e-01	8.696297e-05	8.696297e-05	8.696562e-05	
108	9.300000e-10	0.000000e+00	9.999093e-01	8.998365e-05	9.999093e-01	9.327456e-05	9.999071e-01	9.999071e-01	9.324838e-05	9.999045e-01	9.999045e-01	8.694922e-05	8.694922e-05	8.694633e-05	
109	9.400000e-10	0.000000e+00	9.999093e-01	9.000887e-05	9.999090e-01	9.282521e-05	9.999077e-01	9.999077e-01	9.285014e-05	9.999102e-01	9.999102e-01	8.696214e-05	8.696214e-05	8.696467e-05	
110	9.500000e-10	0.000000e+00	9.999093e-01	8.998600e-05	9.999093e-01	9.323668e-05	9.999071e-01	9.999071e-01	9.321549e-05	9.999047e-01	9.999047e-01	8.694995e-05	8.694995e-05	8.694717e-05	
111	9.600000e-10	0.000000e+00	9.999093e-01	9.000681e-05	9.999090e-01	9.285920e-05	9.999077e-01	9.999077e-01	9.287967e-05	9.999100e-01	9.999100e-01	8.696149e-05	8.696149e-05	8.696393e-05	
112	9.700000e-10	0.000000e+00	9.999093e-01	8.998781e-05	9.999093e-01	9.320618e-05	9.999071e-01	9.999071e-01	9.318898e-05	9.999049e-01	9.999049e-01	8.695051e-05	8.695051e-05	8.694782e-05	
113	9.800000e-10	0.000000e+00	9.999093e-01	9.000522e-05	9.999091e-01	9.288660e-05	9.999077e-01	9.999077e-01	9.290352e-05	9.999098e-01	9.999098e-01	8.696099e-05	8.696099e-05	8.696335e-05	
114	9.900000e-10	0.000000e+00	9.999093e-01	8.998921e-05	9.999093e-01	9.318159e-05	9.999071e-01	9.999071e-01	9.316756e-05	9.999051e-01	9.999051e-01	8.695096e-05	8.695096e-05	8.694835e-05	
115	1.000000e-09	0.000000e+00	9.999093e-01	9.000398e-05	9.999091e-01	9.290872e-05	9.999077e-01	9.999077e-01	9.292280e-05	9.999096e-01	9.999096e-01	8.696059e-05	8.696059e-05	8.696287e-05	
116	1.010000e-09	0.000000e+00	9.999093e-01	8.999030e-05	9.999093e-01	9.316173e-05	9.999072e-01	9.999072e-01	9.315024e-05	9.999052e-01	9.999052e-01	8.695132e-05	8.695132e-05	8.694879e-05	
117	1.020000e-09	0.000000e+00	9.999093e-01	9.000303e-05	9.999091e-01	9.292661e-05	9.999076e-01	9.999076e-01	9.293843e-05	9.999095e-01	9.999095e-01	8.696026e-05	8.696026e-05	8.696246e-05	
118	1.030000e-09	0.000000e+00	9.999093e-01	8.999114e-05	9.999093e-01	9.314566e-05	9.999072e-01	9.999072e-01	9.313619e-05	9.999054e-01	9.999054e-01	8.695162e-05	8.695162e-05	8.694917e-05	
119	1.040000e-09	0.000000e+00	9.999093e-01	9.000229e-05	9.999091e-01	9.294110e-05	9.999076e-01	9.999076e-01	9.295112e-05	9.999093e-01	9.999093e-01	8.695999e-05	8.695999e-05	8.696211e-05	
120	1.050000e-09	0.000000e+00	9.999093e-01	8.999179e-05	9.999092e-01	9.313263e-05	9.999072e-01	9.999072e-01	9.312477e-05	9.999055e-01	9.999055e-01	8.695187e-05	8.695187e-05	8.694950e-05	
121	1.060000e-09	0.000000e+00	9.999093e-01	9.000171e-05	9.999091e-01	9.295288e-05	9.999076e-01	9.999076e-01	9.296146e-05	9.999092e-01	9.999092e-01	8.695976e-05	8.695976e-05	8.696180e-05	
122	1.070000e-09	0.000000e+00	9.999093e-01	8.999230e-05	9.999092e-01	9.312204e-05	9.999072e-01	9.999072e-01	9.311547e-05	9.999057e-01	9.999057e-01	8.695208e-05	8.695208e-05	8.694980e-05	
123	1.080000e-09	0.000000e+00	9.999093e-01	9.000126e-05	9.999091e-01	9.296247e-05	9.999076e-01	9.999076e-01	9.296990e-05	9.999091e-01	9.999091e-01	8.695956e-05	8.695956e-05	8.696152e-05	
124	1.090000e-09	0.000000e+00	9.999093e-01	8.999269e-05	9.999092e-01	9.311340e-05	9.999072e-01	9.999072e-01	9.310786e-05	9.999058e-01	9.999058e-01	8.695226e-05	8.695226e-05	8.695006e-05	
125	1.100000e-09	0.000000e+00	9.999093e-01	9.000092e-05	9.999091e-01	9.297032e-05	9.999076e-01	9.999076e-01	9.297681e-05	9.999089e-01	9.999089e-01	8.695939e-05	8.695939e-05	8.696126e-05	
126	1.110000e-09	0.000000e+00	9.999093e-01	8.999300e-05	9.999092e-01	9.310633e-05	9.999072e-01	9.999072e-01	9.310163e-05	9.999059e-01	9.999059e-01	8.695243e-05	8.695243e-05	8.695031e-05	
127	1.120000e-09	0.000000e+00	9.999093e-01	9.000064e-05	9.999091e-01	9.297675e-05	9.999076e-01	9.999076e-01	9.298249e-05	9.999088e-01	9.999088e-01	8.695923e-05	8.695923e-05	8.696102e-05	
128	1.130000e-09	0.000000e+00	9.999093e-01	8.999324e-05	9.999092e-01	9.310052e-05	9.999072e-01	9.999072e-01	9.309649e-05	9.999060e-01	9.999060e-01	8.695257e-05	8.695257e-05	8.695054e-05	
129	1.140000e-09	0.000000e+00	9.999093e-01	9.000043e-05	9.999091e-01	9.298206e-05	9.999076e-01	9.999076e-01	9.298719e-05	9.999087e-01	9.999087e-01	8.695909e-05	8.695909e-05	8.696080e-05	
130	1.150000e-09	0.000000e+00	9.999093e-01	8.999343e-05	9.999092e-01	9.309572e-05	9.999072e-01	9.999072e-01	9.309225e-05	9.999061e-01	9.999061e-01	8.695270e-05	8.695270e-05	8.695075e-05	
131	1.160000e-09	0.000000e+00	9.999093e-01	9.000026e-05	9.999091e-01	9.298645e-05	9.999076e-01	9.999076e-01	9.299109e-05	9.999086e-01	9.999086e-01	8.695897e-05	8.695897e-05	8.696060e-05	
132	1.170000e-09	0.000000e+00	9.999093e-01	8.999358e-05	9.999092e-01	9.309175e-05	9.999072e-01	9.999072e-01	9.308872e-05	9.999062e-01	9.999062e-01	8.695282e-05	8.695282e-05	8.695096e-05	
133	1.180000e-09	0.000000e+00	9.999093e-01	9.000013e-05	9.999091e-01	9.299010e-05	9.999076e-01	9.999076e-01	9.299433e-05	9.999086e-01	9.999086e-01	8.695885e-05	8.695885e-05	8.696040e-05	
134	1.190000e-09	0.000000e+00	9.999093e-01	8.999370e-05	9.999092e-01	9.308843e-05	9.999072e-01	9.999072e-01	9.308577e-05	9.999063e-01	9.999063e-01	8.695293e-05	8.695293e-05	8.695114e-05	
135	1.200000e-09	0.000000e+00	9.999093e-01	9.000003e-05	9.999091e-01	9.299317e-05	9.999076e-01	9.999076e-01	9.299706e-05	9.999085e-01	9.999085e-01	8.695875e-05	8.695875e-05	8.696022e-05	
136	1.210000e-09	0.000000e+00	9.999093e-01	8.999379e-05	9.999092e-01	9.308565e-05	9.999072e-01	9.999072e-01	9.308330e-05	9.999064e-01	9.999064e-01	8.695304e-05	8.695304e-05	8.695132e-05	
137	1.220000e-09	0.000000e+00	9.999093e-01	8.999994e-05	9.999091e-01	9.299575e-05	9.999076e-01	9.999076e-01	9.299936e-05	9.999084e-01	9.999084e-01	8.695865e-05	8.695865e-05	8.696005e-05	
138	1.230000e-09	0.000000e+00	9.999093e-01	8.999387e-05	9.999092e-01	9.308330e-05	9.999072e-01	9.999072e-01	9.308120e-05	9.999064e-01	9.999064e-01	8.695313e-05	8.695313e-05	8.695149e-05	
139	1.240000e-09	0.000000e+00	9.999093e-01	8.999987e-05	9.999091e-01	9.299794e-05	9.999076e-01	9.999076e-01	9.300132e-05	9.999083e-01	9.999083e-01	8.695855e-05	8.695855e-05	8.695989e-05	
140	1.250000e-09	0.000000e+00	9.999093e-01	8.999394e-05	9.999092e-01	9.308131e-05	9.999072e-01	9.999072e-01	9.307942e-05	9.999065e-01	9.999065e-01	8.695322e-05	8.695322e-05	8.695165e-05	
141	1.260000e-09	0.000000e+00	9.999093e-01	8.999981e-05	9.999091e-01	9.299981e-05	9.999076e-01	9.999076e-01	9.300300e-05	9.999083e-01	9.999083e-01	8.695846e-05	8.695846e-05	8.695973e-05	
142	1.270000e-09	0.000000e+00	9.999093e-01	8.999399e-05	9.999092e-01	9.307959e-05	9.999072e-01	9.999072e-01	9.307789e-05	9.999066e-01	9.999066e-01	8.695331e-05	8.695331e-05	8.695180e-05	
143	1.280000e-09	0.000000e+00	9.999093e-01	8.999976e-05	9.999091e-01	9.300143e-05	9.999076e-01	9.999076e-01	9.300444e-05	9.999082e-01	9.999082e-01	8.695838e-05	8.695838e-05	8.695958e-05	
144	1.290000e-09	0.000000e+00	9.999093e-01	8.999404e-05	9.999092e-01	9.307812e-05	9.999072e-01	9.999072e-01	9.307657e-05	9.999066e-01	9.999066e-01	8.695339e-05	8.695339e-05	8.695195e-05	
145	1.300000e-09	0.000000e+00	9.999093e-01	8.999972e-05	9.999091e-01	9.300283e-05	9.999076e-01	9.999076e-01	9.300570e-05	9.999081e-01	9.999081e-01	8.695830e-05	8.695830e-05	8.695944e-05	
146	1.310000e-09	0.000000e+00	9.999093e-01	8.999408e-05	9.999092e-01	9.307683e-05	9.999072e-01	9.999072e-01	9.307542e-05	9.999067e-01	9.999067e-01	8.695347e-05	8.695347e-05	8.695208e-05	
147	1.320000e-09	0.000000e+00	9.999093e-01	8.999968e-05	9.999091e-01	9.300406e-05	9.999076e-01	9.999076e-01	9.300680e-05	9.999081e-01	9.999081e-01	8.695822e-05	8.695822e-05	8.695931e-05	
148	1.330000e-09	0.000000e+00	9.999093e-01	8.999411e-05	9.999092e-01	9.307570e-05	9.999072e-01	9.999072e-01	9.307441e-05	9.999067e-01	9.999067e-01	8.695354e-05	8.695354e-05	8.695222e-05	
149	1.340000e-09	0.000000e+00	9.999093e-01	8.999964e-05	9.999091e-01	9.300514e-05	9.999076e-01	9.999076e-01	9.300777e-05	9.999080e-01	9.999080e-01	8.695815e-05	8.695815e-05	8.695918e-05	
150	1.350000e-09	0.000000e+00	9.999093e-01	8.999415e-05	9.999092e-01	9.307470e-05	9.999072e-01	9.999072e-01	9.307352e-05	9.999068e-01	9.999068e-01	8.695362e-05	8.695362e-05	8.695234e-05	
151	1.360000e-09	0.000000e+00	9.999093e-01	8.999961e-05	9.999091e-01	9.300611e-05	9.999076e-01	9.999076e-01	9.300864e-05	9.999080e-01	9.999080e-01	8.695808e-05	8.695808e-05	8.695906e-05	
152	1.370000e-09	0.000000e+00	9.999093e-01	8.999418e-05	9.999092e-01	9.307381e-05	9.999072e-01	9.999072e-01	9.307272e-05	9.999068e-01	9.999068e-01	8.695369e-05	8.695369e-05	8.695246e-05	
153	1.380000e-09	0.000000e+00	9.999093e-01	8.999958e-05	9.999091e-01	9.300698e-05	9.999076e-01	9.999076e-01	9.300942e-05	9.999080e-01	9.999080e-01	8.695801e-05	8.695801e-05	8.695895e-05	
154	1.390000e-09	0.000000e+00	9.999093e-01	8.999421e-05	9.999092e-01	9.307301e-05	9.999072e-01	9.999072e-01	9.307200e-05	9.999069e-01	9.999069e-01	8.695375e-05	8.695375e-05	8.695257e-05	
155	1.400000e-09	0.000000e+00	9.999093e-01	8.999955e-05	9.999091e-01	9.300776e-05	9.999076e-01	9.999076e-01	9.301013e-05	9.999079e-01	9.999079e-01	8.695794e-05	8.695794e-05	8.695884e-05	
156	1.410000e-09	0.000000e+00	9.999093e-01	8.999424e-05	9.999092e-01	9.307229e-05	9.999072e-01	9.999072e-01	9.307136e-05	9.999069e-01	9.999069e-01	8.695382e-05	8.695382e-05	8.695268e-05	
157	1.420000e-09	0.000000e+00	9.999093e-01	8.999952e-05	9.999091e-01	9.300848e-05	9.999076e-01	9.999076e-01	9.301077e-05	9.999079e-01	9.999079e-01	8.695788e-05	8.695788e-05	8.695873e-05	
158	1.430000e-09	0.000000e+00	9.999093e-01	8.999426e-05	9.999092e-01	9.307163e-05	9.999072e-01	9.999072e-01	9.307076e-05	9.999069e-01	9.999069e-01	8.695388e-05	8.695388e-05	8.695279e-05	
159	1.440000e-09	0.000000e+00	9.999093e-01	8.999950e-05	9.999091e-01	9.300913e-05	9.999076e-01	9.999076e-01	9.301136e-05	9.999079e-01	9.999079e-01	8.695782e-05	8.695782e-05	8.695863e-05	
160	1.450000e-09	0.000000e+00	9.999093e-01	8.999429e-05	9.999092e-01	9.307102e-05	9.999072e-01	9.999072e-01	9.307022e-05	9.999070e-01	9.999070e-01	8.695394e-05	8.695394e-05	8.695289e-05	
161	1.460000e-09	0.000000e+00	9.999093e-01	8.999947e-05	9.999091e-01	9.300974e-05	9.999076e-01	9.999076e-01	9.301190e-05	9.999078e-01	9.999078e-01	8.695776e-05	8.695776e-05	8.695853e-05	
162	1.470000e-09	0.000000e+00	9.999093e-01	8.999432e-05	9.999092e-01	9.307046e-05	9.999072e-01	9.999072e-01	9.306972e-05	9.999070e-01	9.999070e-01	8.695399e-05	8.695399e-05	8.695298e-05	
163	1.480000e-09	0.000000e+00	9.999093e-01	8.999944e-05	9.999091e-01	9.301030e-05	9.999076e-01	9.999076e-01	9.301240e-05	9.999078e-01	9.999078e-01	8.695770e-05	8.695770e-05	8.695844e-05	
164	1.490000e-09	0.000000e+00	9.999093e-01	8.999435e-05	9.999092e-01	9.306994e-05	9.999072e-01	9.999072e-01	9.306926e-05	9.999070e-01	9.999070e-01	8.695405e-05	8.695405e-05	8.695307e-05	
165	1.500000e-09	0.000000e+00	9.999093e-01	8.999942e-05	9.999091e-01	9.301083e-05	9.999076e-01	9.999076e-01	9.301287e-05	9.999078e-01	9.999078e-01	8.695765e-05	8.695765e-05	8.695835e-05	
166	1.510000e-09	0.000000e+00	9.999093e-01	8.999437e-05	9.999092e-01	9.306945e-05	9.999072e-01	9.999072e-01	9.306882e-05	9.999070e-01	9.999070e-01	8.695410e-05	8.695410e-05	8.695316e-05	
167	1.520000e-09	0.000000e+00	9.999093e-01	8.999939e-05	9.999091e-01	9.301132e-05	9.999076e-01	9.999076e-01	9.301331e-05	9.999077e-01	9.999077e-01	8.695759e-05	8.695759e-05	8.695827e-05	
168	1.530000e-09	0.000000e+00	9.999093e-01	8.999440e-05	9.999092e-01	9.306900e-05	9.999072e-01	9.999072e-01	9.306842e-05	9.999071e-01	9.999071e-01	8.695415e-05	8.695415e-05	8.695324e-05	
169	1.540000e-09	0.000000e+00	9.999093e-01	8.999936e-05	9.999091e-01	9.301178e-05	9.999076e-01	9.999076e-01	9.301373e-05	9.999077e-01	9.999077e-01	8.695754e-05	8.695754e-05	8.695819e-05	
170	1.550000e-09	0.000000e+00	9.999093e-01	8.999443e-05	9.999092e-01	9.306857e-05	9.999072e-01	9.999072e-01	9.306804e-05	9.999071e-01	9.999071e-01	8.695420e-05	8.695420e-05	8.695332e-05	
171	1.560000e-09	0.000000e+00	9.999093e-01	8.999933e-05	9.999091e-01	9.301222e-05	9.999076e-01	9.999076e-01	9.301412e-05	9.999077e-01	9.999077e-01	8.695749e-05	8.695749e-05	8.695811e-05	
172	1.570000e-09	0.000000e+00	9.999093e-01	8.999445e-05	9.999092e-01	9.306816e-05	9.999072e-01	9.999072e-01	9.306768e-05	9.999071e-01	9.999071e-01	8.695425e-05	8.695425e-05	8.695340e-05	
173	1.580000e-09	0.000000e+00	9.999093e-01	8.999931e-05	9.999091e-01	9.301264e-05	9.999076e-01	9.999076e-01	9.301450e-05	9.999077e-01	9.999077e-01	8.695745e-05	8.695745e-05	8.695803e-05	
174	1.590000e-09	0.000000e+00	9.999093e-01	8.999448e-05	9.999092e-01	9.306778e-05	9.999072e-01	9.999072e-01	9.306733e-05	9.999071e-01	9.999071e-01	8.695430e-05	8.695430e-05	8.695348e-05	
175	1.600000e-09	0.000000e+00	9.999093e-01	8.999928e-05	9.999091e-01	9.301303e-05	9.999076e-01	9.999076e-01	9.301485e-05	9.999077e-01	9.999077e-01	8.695740e-05	8.695740e-05	8.695796e-05	
176	1.610000e-09	0.000000e+00	9.999093e-01	8.999451e-05	9.999092e-01	9.306742e-05	9.999072e-01	9.999072e-01	9.306701e-05	9.999071e-01	9.999071e-01	8.695434e-05	8.695434e-05	8.695355e-05	
177	1.620000e-09	0.000000e+00	9.999093e-01	8.999925e-05	9.999091e-01	9.301341e-05	9.999076e-01	9.999076e-01	9.301519e-05	9.999077e-01	9.999077e-01	8.695736e-05	8.695736e-05	8.695789e-05	
178	1.630000e-09	0.000000e+00	9.999093e-01	8.999453e-05	9.999092e-01	9.306707e-05	9.999072e-01	9.999072e-01	9.306670e-05	9.999072e-01	9.999072e-01	8.695439e-05	8.695439e-05	8.695361e-05	
179	1.640000e-09	0.000000e+00	9.999093e-01	8.999923e-05	9.999091e-01	9.301377e-05	9.999076e-01	9.999076e-01	9.301551e-05	9.999076e-01	9.999076e-01	8.695731e-05	8.695731e-05	8.695783e-05	
180	1.650000e-09	0.000000e+00	9.999093e-01	8.999456e-05	9.999092e-01	9.306674e-05	9.999072e-01	9.999072e-01	9.306640e-05	9.999072e-01	9.999072e-01	8.695443e-05	8.695443e-05	8.695368e-05	
181	1.660000e-09	0.000000e+00	9.999093e-01	8.999920e-05	9.999091e-01	9.301411e-05	9.999076e-01	9.999076e-01	9.301582e-05	9.999076e-01	9.999076e-01	8.695727e-05	8.695727e-05	8.695776e-05	
182	1.670000e-09	0.000000e+00	9.999093e-01	8.999459e-05	9.999092e-01	9.306642e-05	9.999072e-01	9.999072e-01	9.306612e-05	9.999072e-01	9.999072e-01	8.695447e-05	8.695447e-05	8.695374e-05	
183	1.680000e-09	0.000000e+00	9.999093e-01	8.999917e-05	9.999091e-01	9.301444e-05	9.999076e-01	9.999076e-01	9.301611e-05	9.999076e-01	9.999076e-01	8.695723e-05	8.695723e-05	8.695770e-05	
184	1.690000e-09	0.000000e+00	9.999093e-01	8.999462e-05	9.999092e-01	9.306612e-05	9.999072e-01	9.999072e-01	9.306585e-05	9.999072e-01	9.999072e-01	8.695451e-05	8.695451e-05	8.695380e-05	
185	1.700000e-09	0.000000e+00	9.999093e-01	8.999915e-05	9.999091e-01	9.301476e-05	9.999076e-01	9.999076e-01	9.301640e-05	9.999076e-01	9.999076e-01	8.695719e-05	8.695719e-05	8.695764e-05	
186	1.710000e-09	0.000000e+00	9.999093e-01	8.999464e-05	9.999092e-01	9.306582e-05	9.999072e-01	9.999072e-01	9.306559e-05	9.999072e-01	9.999072e-01	8.695455e-05	8.695455e-05	8.695386e-05	
187	1.720000e-09	0.000000e+00	9.999093e-01	8.999912e-05	9.999091e-01	9.301506e-05	9.999076e-01	9.999076e-01	9.301667e-05	9.999076e-01	9.999076e-01	8.695715e-05	8.695715e-05	8.695759e-05	
188	1.730000e-09	0.000000e+00	9.999093e-01	8.999467e-05	9.999092e-01	9.306554e-05	9.999072e-01	9.999072e-01	9.306534e-05	9.999072e-01	9.999072e-01	8.695459e-05	8.695459e-05	8.695392e-05	
189	1.740000e-09	0.000000e+00	9.999093e-01	8.999909e-05	9.999091e-01	9.301536e-05	9.999076e-01	9.999076e-01	9.301694e-05	9.999076e-01	9.999076e-01	8.695711e-05	8.695711e-05	8.695753e-05	
190	1.750000e-09	0.000000e+00	9.999093e-01	8.999470e-05	9.999092e-01	9.306528e-05	9.999072e-01	9.999072e-01	9.306510e-05	9.999072e-01	9.999072e-01	8.695462e-05	8.695462e-05	8.695397e-05	
191	1.760000e-09	0.000000e+00	9.999093e-01	8.999906e-05	9.999091e-01	9.301564e-05	9.999076e-01	9.999076e-01	9.301719e-05	9.999076e-01	9.999076e-01	8.695708e-05	8.695708e-05	8.695748e-05	
192	1.770000e-09	0.000000e+00	9.999093e-01	8.999472e-05	9.999092e-01	9.306502e-05	9.999072e-01	9.999072e-01	9.306487e-05	9.999072e-01	9.999072e-01	8.695466e-05	8.695466e-05	8.695403e-05	
193	1.780000e-09	0.000000e+00	9.999093e-01	8.999904e-05	9.999091e-01	9.301591e-05	9.999076e-01	9.999076e-01	9.301744e-05	9.999076e-01	9.999076e-01	8.695704e-05	8.695704e-05	8.695743e-05	
194	1.790000e-09	0.000000e+00	9.999093e-01	8.999475e-05	9.999092e-01	9.306477e-05	9.999072e-01	9.999072e-01	9.306465e-05	9.999072e-01	9.999072e-01	8.695469e-05	8.695469e-05	8.695408e-05	
195	1.800000e-09	0.000000e+00	9.999093e-01	8.999901e-05	9.999091e-01	9.301618e-05	9.999076e-01	9.999076e-01	9.301768e-05	9.999075e-01	9.999075e-01	8.695701e-05	8.695701e-05	8.695738e-05	
196	1.810000e-09	0.000000e+00	9.999093e-01	8.999478e-05	9.999092e-01	9.306452e-05	9.999072e-01	9.999072e-01	9.306443e-05	9.999073e-01	9.999073e-01	8.695472e-05	8.695472e-05	8.695413e-05	
197	1.820000e-09	0.000000e+00	9.999093e-01	8.999898e-05	9.999091e-01	9.301644e-05	9.999076e-01	9.999076e-01	9.301791e-05	9.999075e-01	9.999075e-01	8.695698e-05	8.695698e-05	8.695733e-05	
198	1.830000e-09	0.000000e+00	9.999093e-01	8.999480e-05	9.999092e-01	9.306429e-05	9.999072e-01	9.999072e-01	9.306422e-05	9.999073e-01	9.999073e-01	8.695476e-05	8.695476e-05	8.695417e-05	
199	1.840000e-09	0.000000e+00	9.999093e-01	8.999896e-05	9.999091e-01	9.301668e-05	9.999076e-01	9.999076e-01	9.301813e-05	9.999075e-01	9.999075e-01	8.695695e-05	8.695695e-05	8.695729e-05	
200	1.850000e-09	0.000000e+00	9.999093e-01	8.999483e-05	9.999092e-01	9.306407e-05	9.999072e-01	9.999072e-01	9.306402e-05	9.999073e-01	9.999073e-01	8.695479e-05	8.695479e-05	8.695422e-05	
201	1.860000e-09	0.000000e+00	9.999093e-01	8.999893e-05	9.999091e-01	9.301692e-05	9.999076e-01	9.999076e-01	9.301835e-05	9.999075e-01	9.999075e-01	8.695692e-05	8.695692e-05	8.695725e-05	
202	1.870000e-09	0.000000e+00	9.999093e-01	8.999486e-05	9.999092e-01	9.306385e-05	9.999072e-01	9.999072e-01	9.306383e-05	9.999073e-01	9.999073e-01	8.695482e-05	8.695482e-05	8.695426e-05	
203	1.880000e-09	0.000000e+00	9.999093e-01	8.999890e-05	9.999091e-01	9.301716e-05	9.999076e-01	9.999076e-01	9.301856e-05	9.999075e-01	9.999075e-01	8.695689e-05	8.695689e-05	8.695720e-05	
204	1.890000e-09	0.000000e+00	9.999093e-01	8.999488e-05	9.999092e-01	9.306364e-05	9.999072e-01	9.999072e-01	9.306364e-05	9.999073e-01	9.999073e-01	8.695485e-05	8.695485e-05	8.695430e-05	
205	1.900000e-09	0.000000e+00	9.999093e-01	8.999888e-05	9.999091e-01	9.301738e-05	9.999076e-01	9.999076e-01	9.301876e-05	9.999075e-01	9.999075e-01	8.695686e-05	8.695686e-05	8.695716e-05	
206	1.910000e-09	0.000000e+00	9.999093e-01	8.999491e-05	9.999092e-01	9.306343e-05	9.999072e-01	9.999072e-01	9.306345e-05	9.999073e-01	9.999073e-01	8.695487e-05	8.695487e-05	8.695434e-05	
207	1.920000e-09	0.000000e+00	9.999093e-01	8.999885e-05	9.999091e-01	9.301760e-05	9.999076e-01	9.999076e-01	9.301896e-05	9.999075e-01	9.999075e-01	8.695683e-05	8.695683e-05	8.695712e-05	
208	1.930000e-09	0.000000e+00	9.999093e-01	8.999494e-05	9.999092e-01	9.306324e-05	9.999072e-01	9.999072e-01	9.306328e-05	9.999073e-01	9.999073e-01	8.695490e-05	8.695490e-05	8.695438e-05	
209	1.940000e-09	0.000000e+00	9.999093e-01	8.999883e-05	9.999091e-01	9.301781e-05	9.999076e-01	9.999076e-01	9.301916e-05	9.999075e-01	9.999075e-01	8.695680e-05	8.695680e-05	8.695709e-05	
210	1.950000e-09	0.000000e+00	9.999093e-01	8.999496e-05	9.999092e-01	9.306305e-05	9.999072e-01	9.999072e-01	9.306310e-05	9.999073e-01	9.999073e-01	8.695493e-05	8.695493e-05	8.695442e-05	
211	1.960000e-09	0.000000e+00	9.999093e-01	8.999880e-05	9.999091e-01	9.301802e-05	9.999076e-01	9.999076e-01	9.301934e-05	9.999075e-01	9.999075e-01	8.695677e-05	8.695677e-05	8.695705e-05	
212	1.970000e-09	0.000000e+00	9.999093e-01	8.999499e-05	9.999092e-01	9.306286e-05	9.999072e-01	9.999072e-01	9.306294e-05	9.999073e-01	9.999073e-01	8.695495e-05	8.695495e-05	8.695446e-05	
213	1.980000e-09	0.000000e+00	9.999093e-01	8.999878e-05	9.999091e-01	9.301822e-05	9.999076e-01	9.999076e-01	9.301953e-05	9.999075e-01	9.999075e-01	8.695675e-05	8.695675e-05	8.695702e-05	
214	1.990000e-09	0.000000e+00	9.999093e-01	8.999501e-05	9.999092e-01	9.306268e-05	9.999072e-01	9.999072e-01	9.306277e-05	9.999073e-01	9.999073e-01	8.695498e-05	8.695498e-05	8.695449e-05	
215	2.000000e-09	0.000000e+00	9.999093e-01	8.999875e-05	9.999091e-01	9.301841e-05	9.999076e-01	9.999076e-01	9.301970e-05	9.999075e-01	9.999075e-01	8.695672e-05	8.695672e-05	8.695698e-05	

                                                                                                                * spice from s1s
                                                                                                                Transient Analysis  Sat Feb  7 10:35:13  2009
------------------------------------------------------------------------------------------------------------------------------------------------------------------------------------------------------------------------------------------------
Index   time            v(n7)           
------------------------------------------------------------------------------------------------------------------------------------------------------------------------------------------------------------------------------------------------
0	0.000000e+00	1.000000e+00	
1	1.000000e-13	9.673439e-01	
2	1.855190e-13	9.409233e-01	
3	3.565571e-13	8.909561e-01	
4	6.986333e-13	8.066718e-01	
5	1.382786e-12	6.871937e-01	
6	2.291444e-12	5.989387e-01	
7	3.505801e-12	5.517159e-01	
8	5.242811e-12	5.477866e-01	
9	7.860642e-12	5.877932e-01	
10	1.133296e-11	6.543949e-01	
11	1.633707e-11	7.373907e-01	
12	2.246696e-11	8.139502e-01	
13	3.102337e-11	8.862017e-01	
14	4.102337e-11	9.366159e-01	
15	5.102337e-11	9.648254e-01	
16	6.102337e-11	9.805087e-01	
17	7.102337e-11	9.891895e-01	
18	8.102337e-11	9.939877e-01	
19	9.102337e-11	9.966368e-01	
20	1.010234e-10	9.980994e-01	
21	1.110234e-10	9.989075e-01	
22	1.210234e-10	9.993543e-01	
23	1.310234e-10	9.996018e-01	
24	1.410234e-10	9.997387e-01	
25	1.510234e-10	9.998151e-01	
26	1.610234e-10	9.998572e-01	
27	1.710234e-10	9.998811e-01	
28	1.810234e-10	9.998940e-01	
29	1.910234e-10	9.999016e-01	
30	2.000000e-10	9.999052e-01	
31	2.010000e-10	9.999056e-01	
32	2.030000e-10	9.999062e-01	
33	2.070000e-10	9.999071e-01	
34	2.150000e-10	9.999085e-01	
35	2.250000e-10	9.999095e-01	
36	2.350000e-10	9.999101e-01	
37	2.450000e-10	9.999105e-01	
38	2.550000e-10	9.999107e-01	
39	2.650000e-10	9.999108e-01	
40	2.750000e-10	9.999108e-01	
41	2.850000e-10	9.999109e-01	
42	2.950000e-10	9.999109e-01	
43	3.050000e-10	9.999109e-01	
44	3.150000e-10	9.999109e-01	
45	3.250000e-10	9.999109e-01	
46	3.260000e-10	9.999109e-01	
47	3.280000e-10	9.999110e-01	
48	3.320000e-10	9.999110e-01	
49	3.400000e-10	9.999111e-01	
50	3.500000e-10	9.999097e-01	
51	3.600000e-10	9.999024e-01	
52	3.700000e-10	9.998967e-01	
53	3.800000e-10	1.000009e+00	
54	3.900000e-10	1.000631e+00	
55	4.000000e-10	1.001806e+00	
56	4.100000e-10	9.975255e-01	
57	4.200000e-10	9.634384e-01	
58	4.300000e-10	8.613582e-01	
59	4.400000e-10	6.827324e-01	
60	4.500000e-10	4.676296e-01	
61	4.600000e-10	2.777450e-01	
62	4.700000e-10	1.514929e-01	
63	4.800000e-10	8.046982e-02	
64	4.900000e-10	4.210071e-02	
65	5.000000e-10	2.193738e-02	
66	5.100000e-10	1.141968e-02	
67	5.200000e-10	5.977801e-03	
68	5.300000e-10	3.142151e-03	
69	5.400000e-10	1.690596e-03	
70	5.500000e-10	9.187686e-04	
71	5.600000e-10	5.329617e-04	
72	5.700000e-10	3.163697e-04	
73	5.800000e-10	2.150782e-04	
74	5.900000e-10	1.509353e-04	
75	6.000000e-10	1.255237e-04	
76	6.100000e-10	1.048054e-04	
77	6.200000e-10	9.935080e-05	
78	6.300000e-10	9.178422e-05	
79	6.400000e-10	9.130281e-05	
80	6.500000e-10	8.810980e-05	
81	6.600000e-10	8.865261e-05	
82	6.700000e-10	8.710774e-05	
83	6.800000e-10	8.770061e-05	
84	6.900000e-10	8.686847e-05	
85	7.000000e-10	8.732206e-05	
86	7.100000e-10	8.683852e-05	
87	7.200000e-10	8.715460e-05	
88	7.300000e-10	8.685810e-05	
89	7.400000e-10	8.707278e-05	
90	7.500000e-10	8.688313e-05	
91	7.600000e-10	8.702932e-05	
92	7.700000e-10	8.690331e-05	
93	7.800000e-10	8.700469e-05	
94	7.900000e-10	8.691769e-05	
95	8.000000e-10	8.699001e-05	
96	8.100000e-10	8.692751e-05	
97	8.200000e-10	8.698092e-05	
98	8.300000e-10	8.693412e-05	
99	8.400000e-10	8.697511e-05	
100	8.500000e-10	8.693857e-05	
101	8.600000e-10	8.697129e-05	
102	8.700000e-10	8.694161e-05	
103	8.800000e-10	8.696871e-05	
104	8.900000e-10	8.694373e-05	
105	9.000000e-10	8.696691e-05	
106	9.100000e-10	8.694523e-05	
107	9.200000e-10	8.696562e-05	
108	9.300000e-10	8.694633e-05	
109	9.400000e-10	8.696467e-05	
110	9.500000e-10	8.694717e-05	
111	9.600000e-10	8.696393e-05	
112	9.700000e-10	8.694782e-05	
113	9.800000e-10	8.696335e-05	
114	9.900000e-10	8.694835e-05	
115	1.000000e-09	8.696287e-05	
116	1.010000e-09	8.694879e-05	
117	1.020000e-09	8.696246e-05	
118	1.030000e-09	8.694917e-05	
119	1.040000e-09	8.696211e-05	
120	1.050000e-09	8.694950e-05	
121	1.060000e-09	8.696180e-05	
122	1.070000e-09	8.694980e-05	
123	1.080000e-09	8.696152e-05	
124	1.090000e-09	8.695006e-05	
125	1.100000e-09	8.696126e-05	
126	1.110000e-09	8.695031e-05	
127	1.120000e-09	8.696102e-05	
128	1.130000e-09	8.695054e-05	
129	1.140000e-09	8.696080e-05	
130	1.150000e-09	8.695075e-05	
131	1.160000e-09	8.696060e-05	
132	1.170000e-09	8.695096e-05	
133	1.180000e-09	8.696040e-05	
134	1.190000e-09	8.695114e-05	
135	1.200000e-09	8.696022e-05	
136	1.210000e-09	8.695132e-05	
137	1.220000e-09	8.696005e-05	
138	1.230000e-09	8.695149e-05	
139	1.240000e-09	8.695989e-05	
140	1.250000e-09	8.695165e-05	
141	1.260000e-09	8.695973e-05	
142	1.270000e-09	8.695180e-05	
143	1.280000e-09	8.695958e-05	
144	1.290000e-09	8.695195e-05	
145	1.300000e-09	8.695944e-05	
146	1.310000e-09	8.695208e-05	
147	1.320000e-09	8.695931e-05	
148	1.330000e-09	8.695222e-05	
149	1.340000e-09	8.695918e-05	
150	1.350000e-09	8.695234e-05	
151	1.360000e-09	8.695906e-05	
152	1.370000e-09	8.695246e-05	
153	1.380000e-09	8.695895e-05	
154	1.390000e-09	8.695257e-05	
155	1.400000e-09	8.695884e-05	
156	1.410000e-09	8.695268e-05	
157	1.420000e-09	8.695873e-05	
158	1.430000e-09	8.695279e-05	
159	1.440000e-09	8.695863e-05	
160	1.450000e-09	8.695289e-05	
161	1.460000e-09	8.695853e-05	
162	1.470000e-09	8.695298e-05	
163	1.480000e-09	8.695844e-05	
164	1.490000e-09	8.695307e-05	
165	1.500000e-09	8.695835e-05	
166	1.510000e-09	8.695316e-05	
167	1.520000e-09	8.695827e-05	
168	1.530000e-09	8.695324e-05	
169	1.540000e-09	8.695819e-05	
170	1.550000e-09	8.695332e-05	
171	1.560000e-09	8.695811e-05	
172	1.570000e-09	8.695340e-05	
173	1.580000e-09	8.695803e-05	
174	1.590000e-09	8.695348e-05	
175	1.600000e-09	8.695796e-05	
176	1.610000e-09	8.695355e-05	
177	1.620000e-09	8.695789e-05	
178	1.630000e-09	8.695361e-05	
179	1.640000e-09	8.695783e-05	
180	1.650000e-09	8.695368e-05	
181	1.660000e-09	8.695776e-05	
182	1.670000e-09	8.695374e-05	
183	1.680000e-09	8.695770e-05	
184	1.690000e-09	8.695380e-05	
185	1.700000e-09	8.695764e-05	
186	1.710000e-09	8.695386e-05	
187	1.720000e-09	8.695759e-05	
188	1.730000e-09	8.695392e-05	
189	1.740000e-09	8.695753e-05	
190	1.750000e-09	8.695397e-05	
191	1.760000e-09	8.695748e-05	
192	1.770000e-09	8.695403e-05	
193	1.780000e-09	8.695743e-05	
194	1.790000e-09	8.695408e-05	
195	1.800000e-09	8.695738e-05	
196	1.810000e-09	8.695413e-05	
197	1.820000e-09	8.695733e-05	
198	1.830000e-09	8.695417e-05	
199	1.840000e-09	8.695729e-05	
200	1.850000e-09	8.695422e-05	
201	1.860000e-09	8.695725e-05	
202	1.870000e-09	8.695426e-05	
203	1.880000e-09	8.695720e-05	
204	1.890000e-09	8.695430e-05	
205	1.900000e-09	8.695716e-05	
206	1.910000e-09	8.695434e-05	
207	1.920000e-09	8.695712e-05	
208	1.930000e-09	8.695438e-05	
209	1.940000e-09	8.695709e-05	
210	1.950000e-09	8.695442e-05	
211	1.960000e-09	8.695705e-05	
212	1.970000e-09	8.695446e-05	
213	1.980000e-09	8.695702e-05	
214	1.990000e-09	8.695449e-05	
215	2.000000e-09	8.695698e-05	

CPU time since last call: 0.192 seconds.

Total CPU time: 0.192 seconds.

Total DRAM available = 3034.875000 MB.
DRAM currently available = 2332.359375 MB.
Total ngspice program size = 7.364258 MB.
Resident set size = 3.029297 MB.
Shared ngspice pages = 464.000 kB.
Text (code) pages = 1.378906 MB.
Stack = 0 bytes.
Library pages = 5.531250 MB.

