
Circuit: * spice from s2s

Doing analysis at TEMP = 75.000000 and TNOM = 27.000000


Initial Transient Solution
--------------------------

Node                                   Voltage
----                                   -------
n0                                           0
n16                                          0
n17                                          1
n18                                          1
n19                                          0
n20                                          0
n21                                          1
n22                                          1
n23                                          0
n24                                          0
n25                                          1
n26                                          1
n27                                          0
n28                                          0
n29                                          1
n1                                           1
n34                                          1
n35                                          0
n36                                          0
n37                                          1
n50                                          1
n51                                          0
n52                                          0
n53                                          1
n3                                           1
n32                                          1
n33                                          0
n38                                          0
n39                                          1
n48                                          1
n49                                          0
n54                                          0
n55                                          1
n30                                          1
n31                                          0
n4                                           1
n7                                           0
n40                                          0
n41                                          1
n46                                          1
n47                                          0
n42                                          0
n43                                          1
n44                                          1
n45                                          0
n8                                           0
n58                                          0
n59                                          1
n56                                          0
n57                                          1
n10                                          1
n13                                          0
n60                                          0
n61                                          1
n62                                          0
n63                                          1
n2                                           1
n5                                           1
n6                                           1
n9                                           1
n11                                          1
n12                                          1
n14                                          1
n15                                          1
nseg_node_64                                 0
nseg_node_65                                 0
nseg_node_66                                 0
nseg_node_67                                 0
nseg_node_68                                 0
nseg_node_69                                 0
nseg_node_70                                 0
nseg_node_71                                 0
nseg_node_72                                 0
nseg_node_73                                 0
nseg_node_74                                 0
nseg_node_75                                 0
nseg_node_76                                 0
nseg_node_77                                 0
nseg_node_78                                 0
nseg_node_79                                 0
nseg_node_80                                 0
nseg_node_81                                 0
nseg_node_82                                 0
nseg_node_83                                 0
nseg_node_84                                 0
nseg_node_85                                 0
nseg_node_86                                 0
nseg_node_87                                 0
nseg_node_88                                 0
nseg_node_89                                 0
nseg_node_90                                 0
gin                                          1
vdd                                          1
vdt#branch                                   0
vdd#branch                        -4.33394e-05


No. of Data Rows : 221

                                                                                                                * spice from s2s
                                                                                                                Transient Analysis  Sat Feb  7 10:40:23  2009
------------------------------------------------------------------------------------------------------------------------------------------------------------------------------------------------------------------------------------------------
Index   time            v(gin)          v(n16)          v(n18)          v(n20)          v(n22)          v(n24)          v(n26)          v(n28)          v(n34)          v(n36)          v(n50)          v(n52)          v(n32)          
------------------------------------------------------------------------------------------------------------------------------------------------------------------------------------------------------------------------------------------------
0	0.000000e+00	1.000000e+00	0.000000e+00	1.000000e+00	0.000000e+00	1.000000e+00	0.000000e+00	1.000000e+00	0.000000e+00	1.000000e+00	0.000000e+00	1.000000e+00	0.000000e+00	1.000000e+00	
1	1.000000e-13	1.000000e+00	-1.008145e-03	9.400774e-01	-1.052509e-03	9.400774e-01	-1.052505e-03	9.400767e-01	-1.945537e-03	9.007068e-01	-1.080989e-03	9.384783e-01	-1.456202e-03	9.988900e-01	
2	1.262190e-13	1.000000e+00	-1.327759e-03	9.253079e-01	-1.387419e-03	9.253079e-01	-1.387414e-03	9.253069e-01	-2.553242e-03	8.772606e-01	-1.426067e-03	9.231316e-01	-1.915438e-03	9.985085e-01	
3	1.786571e-13	1.000000e+00	-2.056612e-03	8.975333e-01	-2.155128e-03	8.975333e-01	-2.155121e-03	8.975316e-01	-3.914709e-03	8.350461e-01	-2.220508e-03	8.939145e-01	-2.957115e-03	9.975455e-01	
4	2.835332e-13	1.000000e+00	-3.877030e-03	8.513072e-01	-4.109295e-03	8.513071e-01	-4.109283e-03	8.513029e-01	-7.145783e-03	7.737627e-01	-4.271480e-03	8.433624e-01	-5.533954e-03	9.943405e-01	
5	4.932854e-13	1.000000e+00	-7.905321e-03	7.862418e-01	-8.638358e-03	7.862408e-01	-8.638350e-03	7.862255e-01	-1.369465e-02	7.092119e-01	-9.153001e-03	7.660796e-01	-1.126835e-02	9.834324e-01	
6	9.127899e-13	1.000000e+00	-1.428575e-02	7.187926e-01	-1.665880e-02	7.187849e-01	-1.665894e-02	7.187299e-01	-2.261914e-02	6.786437e-01	-1.813700e-02	6.695014e-01	-2.098531e-02	9.534005e-01	
7	1.366770e-12	1.000000e+00	-1.738218e-02	6.924336e-01	-2.181331e-02	6.924083e-01	-2.181392e-02	6.923114e-01	-2.567899e-02	6.897051e-01	-2.416721e-02	6.130164e-01	-2.700912e-02	9.216350e-01	
8	2.093219e-12	1.000000e+00	-1.710311e-02	6.836143e-01	-2.384048e-02	6.835476e-01	-2.384230e-02	6.834447e-01	-2.383314e-02	7.125745e-01	-2.674678e-02	5.669096e-01	-2.941329e-02	8.858779e-01	
9	3.090748e-12	1.000000e+00	-1.343426e-02	6.958270e-01	-2.052613e-02	6.957214e-01	-2.052888e-02	6.956950e-01	-1.800963e-02	7.411649e-01	-2.358407e-02	5.461206e-01	-2.574752e-02	8.582413e-01	
10	4.761999e-12	1.000000e+00	-7.881716e-03	7.314693e-01	-1.120323e-02	7.314242e-01	-1.120272e-02	7.314914e-01	-8.910123e-03	7.790753e-01	-1.542510e-02	5.532246e-01	-1.460318e-02	8.384734e-01	
11	7.151626e-12	1.000000e+00	-3.128754e-03	7.837277e-01	-7.066960e-06	7.839185e-01	1.335894e-06	7.839654e-01	4.047919e-05	8.179415e-01	-6.764380e-03	5.931880e-01	1.986624e-03	8.367051e-01	
12	1.037851e-11	1.000000e+00	3.394231e-04	8.419344e-01	7.605847e-03	8.423229e-01	7.615057e-03	8.422909e-01	5.790594e-03	8.536246e-01	-5.246400e-04	6.560714e-01	1.958567e-02	8.522132e-01	
13	1.493518e-11	1.000000e+00	2.609240e-03	9.001186e-01	1.017332e-02	9.003960e-01	1.017074e-02	9.003349e-01	7.888949e-03	8.872430e-01	3.441840e-03	7.353117e-01	3.253247e-02	8.801453e-01	
14	2.102953e-11	1.000000e+00	3.181830e-03	9.466368e-01	8.776304e-03	9.466195e-01	8.764293e-03	9.466034e-01	7.325695e-03	9.181904e-01	5.372454e-03	8.174298e-01	3.419635e-02	9.122762e-01	
15	2.932413e-11	1.000000e+00	2.385186e-03	9.779947e-01	5.472856e-03	9.778299e-01	5.464823e-03	9.778554e-01	5.326075e-03	9.469230e-01	5.653359e-03	8.918481e-01	2.628549e-02	9.431144e-01	
16	3.932413e-11	1.000000e+00	1.247500e-03	9.926430e-01	2.545203e-03	9.925055e-01	2.544167e-03	9.925350e-01	3.186744e-03	9.686390e-01	4.565656e-03	9.432101e-01	1.657584e-02	9.663603e-01	
17	4.932413e-11	1.000000e+00	5.834784e-04	9.975082e-01	1.088911e-03	9.974284e-01	1.089781e-03	9.974414e-01	1.819050e-03	9.814399e-01	3.211499e-03	9.703576e-01	9.965996e-03	9.801050e-01	
18	5.932413e-11	1.000000e+00	2.825737e-04	9.990942e-01	4.690287e-04	9.990553e-01	4.700425e-04	9.990565e-01	1.041255e-03	9.890217e-01	2.115021e-03	9.845372e-01	5.851019e-03	9.882252e-01	
19	6.932413e-11	1.000000e+00	1.621857e-04	9.996452e-01	2.311823e-04	9.996275e-01	2.318649e-04	9.996236e-01	6.164253e-04	9.934805e-01	1.344417e-03	9.919185e-01	3.392773e-03	9.930203e-01	
20	7.932413e-11	1.000000e+00	1.153087e-04	9.998114e-01	1.391735e-04	9.998039e-01	1.396190e-04	9.997995e-01	3.843306e-04	9.961270e-01	8.462638e-04	9.957588e-01	1.968332e-03	9.958480e-01	
21	8.932413e-11	1.000000e+00	9.878009e-05	9.998838e-01	1.081186e-04	9.998807e-01	1.083771e-04	9.998769e-01	2.571315e-04	9.976733e-01	5.355293e-04	9.977471e-01	1.145732e-03	9.975167e-01	
22	9.932413e-11	1.000000e+00	9.224079e-05	9.998942e-01	9.503090e-05	9.998930e-01	9.519098e-05	9.998904e-01	1.860331e-04	9.985978e-01	3.500432e-04	9.987867e-01	6.848373e-04	9.984983e-01	
23	1.093241e-10	1.000000e+00	9.036612e-05	9.999101e-01	9.197830e-05	9.999096e-01	9.206633e-05	9.999079e-01	1.460159e-04	9.991304e-01	2.390361e-04	9.993214e-01	4.203861e-04	9.990783e-01	
24	1.193241e-10	1.000000e+00	8.935737e-05	9.999047e-01	8.960688e-05	9.999045e-01	8.966281e-05	9.999035e-01	1.231183e-04	9.994552e-01	1.758696e-04	9.996050e-01	2.768302e-04	9.994181e-01	
25	1.293241e-10	1.000000e+00	8.927783e-05	9.999123e-01	8.985017e-05	9.999123e-01	8.987819e-05	9.999116e-01	1.099126e-04	9.996362e-01	1.382080e-04	9.997482e-01	1.928838e-04	9.996199e-01	
26	1.393241e-10	1.000000e+00	8.903459e-05	9.999066e-01	8.903739e-05	9.999066e-01	8.905761e-05	9.999063e-01	1.023063e-04	9.997521e-01	1.178369e-04	9.998269e-01	1.497814e-04	9.997369e-01	
27	1.493241e-10	1.000000e+00	8.912276e-05	9.999120e-01	8.951260e-05	9.999120e-01	8.952052e-05	9.999117e-01	9.778979e-05	9.998118e-01	1.052147e-04	9.998645e-01	1.227613e-04	9.998075e-01	
28	1.593241e-10	1.000000e+00	8.901303e-05	9.999074e-01	8.903151e-05	9.999074e-01	8.903964e-05	9.999073e-01	9.525101e-05	9.998547e-01	9.897872e-05	9.998871e-01	1.106454e-04	9.998474e-01	
29	1.693241e-10	1.000000e+00	8.909123e-05	9.999114e-01	8.942012e-05	9.999115e-01	8.942153e-05	9.999113e-01	9.364899e-05	9.998728e-01	9.464725e-05	9.998965e-01	1.014356e-04	9.998724e-01	
30	1.793241e-10	1.000000e+00	8.902021e-05	9.999079e-01	8.907353e-05	9.999079e-01	8.907744e-05	9.999079e-01	9.283017e-05	9.998900e-01	9.290614e-05	9.999035e-01	9.863275e-05	9.998856e-01	
31	1.893241e-10	1.000000e+00	8.908010e-05	9.999110e-01	8.937336e-05	9.999110e-01	8.937278e-05	9.999110e-01	9.222454e-05	9.998941e-01	9.131142e-05	9.999054e-01	9.505067e-05	9.998949e-01	
32	1.993241e-10	1.000000e+00	8.902672e-05	9.999083e-01	8.910864e-05	9.999083e-01	8.911094e-05	9.999083e-01	9.199417e-05	9.999020e-01	9.094177e-05	9.999079e-01	9.491941e-05	9.998989e-01	
33	2.000000e-10	1.000000e+00	8.905869e-05	9.999096e-01	8.924313e-05	9.999096e-01	8.924350e-05	9.999096e-01	9.191298e-05	9.999004e-01	9.078196e-05	9.999076e-01	9.425187e-05	9.998997e-01	
34	2.010000e-10	9.920000e-01	-4.405080e-06	9.999086e-01	8.922228e-05	9.999096e-01	8.923435e-05	9.999096e-01	9.191666e-05	9.999009e-01	9.071404e-05	9.999076e-01	9.422064e-05	9.998999e-01	
35	2.030000e-10	9.760000e-01	-3.175244e-04	9.999035e-01	8.914615e-05	9.999096e-01	8.923097e-05	9.999096e-01	9.187920e-05	9.999016e-01	9.062816e-05	9.999078e-01	9.409132e-05	9.999005e-01	
36	2.070000e-10	9.440000e-01	-1.078560e-03	9.998829e-01	8.873419e-05	9.999096e-01	8.923462e-05	9.999096e-01	9.180975e-05	9.999025e-01	9.048259e-05	9.999081e-01	9.381098e-05	9.999016e-01	
37	2.150000e-10	8.800000e-01	-1.681849e-03	9.998672e-01	8.846746e-05	9.999096e-01	8.923083e-05	9.999096e-01	9.170843e-05	9.999041e-01	9.026835e-05	9.999086e-01	9.344945e-05	9.999032e-01	
38	2.250000e-10	8.000000e-01	-3.742712e-04	9.999213e-01	9.001800e-05	9.999096e-01	8.923503e-05	9.999096e-01	9.162800e-05	9.999052e-01	9.010763e-05	9.999089e-01	9.315792e-05	9.999045e-01	
39	2.350000e-10	7.200000e-01	5.824032e-03	1.000066e+00	9.239825e-05	9.999097e-01	8.923280e-05	9.999096e-01	9.158111e-05	9.999060e-01	9.001437e-05	9.999090e-01	9.301671e-05	9.999052e-01	
40	2.450000e-10	6.400000e-01	2.296319e-02	1.000397e+00	9.655922e-05	9.999097e-01	8.923548e-05	9.999096e-01	9.155321e-05	9.999063e-01	8.996396e-05	9.999091e-01	9.292309e-05	9.999057e-01	
41	2.550000e-10	5.600000e-01	5.951331e-02	1.001007e+00	1.033537e-04	9.999098e-01	8.923354e-05	9.999096e-01	9.153703e-05	9.999066e-01	8.993272e-05	9.999092e-01	9.288644e-05	9.999059e-01	
42	2.650000e-10	4.800000e-01	1.331488e-01	1.001915e+00	1.111415e-04	9.999099e-01	8.923587e-05	9.999096e-01	9.152736e-05	9.999067e-01	8.991769e-05	9.999092e-01	9.285355e-05	9.999061e-01	
43	2.750000e-10	4.000000e-01	2.645065e-01	9.998871e-01	6.328226e-05	9.999087e-01	8.921241e-05	9.999096e-01	9.152176e-05	9.999068e-01	8.990627e-05	9.999092e-01	9.284693e-05	9.999062e-01	
44	2.850000e-10	3.200000e-01	4.471370e-01	9.679274e-01	-4.924313e-04	9.998971e-01	8.901898e-05	9.999096e-01	9.151835e-05	9.999069e-01	8.990269e-05	9.999092e-01	9.283335e-05	9.999062e-01	
45	2.950000e-10	2.400000e-01	6.468557e-01	8.290764e-01	-2.151904e-03	9.998639e-01	8.852412e-05	9.999096e-01	9.151630e-05	9.999069e-01	8.989763e-05	9.999092e-01	9.283467e-05	9.999063e-01	
46	3.050000e-10	1.600000e-01	8.122135e-01	5.516168e-01	1.989327e-02	1.000345e+00	9.711705e-05	9.999097e-01	9.151799e-05	9.999069e-01	8.989780e-05	9.999092e-01	9.282778e-05	9.999063e-01	
47	3.150000e-10	8.000000e-02	9.133109e-01	2.634472e-01	1.781906e-01	1.003135e+00	1.430837e-04	9.999107e-01	9.153137e-05	9.999069e-01	8.989478e-05	9.999092e-01	9.283062e-05	9.999063e-01	
48	3.250000e-10	0.000000e+00	9.625581e-01	1.001853e-01	4.859412e-01	9.706718e-01	-4.416861e-04	9.998984e-01	9.133866e-05	9.999069e-01	8.989617e-05	9.999092e-01	9.282648e-05	9.999063e-01	
49	3.260000e-10	0.000000e+00	9.654053e-01	9.233444e-02	5.192846e-01	9.615765e-01	-6.027580e-04	9.998950e-01	9.128667e-05	9.999069e-01	8.989512e-05	9.999092e-01	9.282754e-05	9.999063e-01	
50	3.280000e-10	0.000000e+00	9.708510e-01	7.773783e-02	5.832049e-01	9.382529e-01	-1.015228e-03	9.998864e-01	9.115373e-05	9.999069e-01	8.989499e-05	9.999092e-01	9.282825e-05	9.999063e-01	
51	3.320000e-10	0.000000e+00	9.797637e-01	5.456697e-02	6.923222e-01	8.584067e-01	-2.357459e-03	9.998566e-01	9.068614e-05	9.999069e-01	8.989486e-05	9.999092e-01	9.282761e-05	9.999063e-01	
52	3.400000e-10	0.000000e+00	9.906542e-01	2.624185e-02	8.401171e-01	6.054266e-01	6.302801e-03	1.000037e+00	9.355751e-05	9.999069e-01	8.989485e-05	9.999092e-01	9.282780e-05	9.999063e-01	
53	3.493034e-10	0.000000e+00	9.962337e-01	1.133905e-02	9.280354e-01	3.033688e-01	1.277388e-01	1.002553e+00	1.323414e-04	9.999074e-01	8.989996e-05	9.999092e-01	9.282733e-05	9.999067e-01	
54	3.578988e-10	0.000000e+00	9.983192e-01	5.405596e-03	9.662593e-01	1.328948e-01	3.837212e-01	9.939542e-01	-7.610865e-06	9.999062e-01	8.988624e-05	9.999092e-01	9.282754e-05	9.999058e-01	
55	3.675866e-10	0.000000e+00	9.992996e-01	2.354317e-03	9.862622e-01	5.288022e-02	6.780485e-01	8.685617e-01	-1.797618e-03	9.998853e-01	8.964454e-05	9.999092e-01	9.282721e-05	9.998878e-01	
56	3.775866e-10	0.000000e+00	9.996769e-01	1.016720e-03	9.945794e-01	2.094194e-02	8.604401e-01	5.589337e-01	1.414660e-02	1.000056e+00	9.157810e-05	9.999092e-01	9.282765e-05	1.000028e+00	
57	3.867180e-10	0.000000e+00	9.998139e-01	4.987151e-04	9.976731e-01	9.360091e-03	9.364211e-01	2.689890e-01	1.343966e-01	1.001406e+00	1.071054e-04	9.999095e-01	9.282967e-05	1.001195e+00	
58	3.956419e-10	0.000000e+00	9.998665e-01	2.682188e-04	9.989197e-01	4.470475e-03	9.711418e-01	1.124551e-01	3.789528e-01	9.972574e-01	6.016190e-05	9.999089e-01	9.282436e-05	9.979967e-01	
59	4.045763e-10	0.000000e+00	9.998923e-01	1.724031e-04	9.994881e-01	2.035463e-03	9.874273e-01	4.855974e-02	6.200311e-01	9.406342e-01	-5.964483e-04	9.998997e-01	9.273079e-05	9.497146e-01	
60	4.145763e-10	0.000000e+00	9.999020e-01	1.171954e-04	9.997344e-01	9.819574e-04	9.949397e-01	1.914005e-02	7.954613e-01	7.529509e-01	-1.095505e-03	9.998903e-01	9.262962e-05	7.790530e-01	
61	4.239710e-10	0.000000e+00	9.999073e-01	1.059032e-04	9.998408e-01	3.841207e-04	9.979938e-01	8.971496e-03	8.929809e-01	5.185285e-01	1.968870e-02	1.000184e+00	9.559694e-05	5.528773e-01	
62	4.325306e-10	0.000000e+00	9.999080e-01	9.175196e-05	9.998737e-01	3.146012e-04	9.989400e-01	4.910293e-03	9.438918e-01	3.499161e-01	1.023865e-01	1.001368e+00	1.077695e-04	3.807549e-01	
63	4.425306e-10	0.000000e+00	9.999095e-01	9.496266e-05	9.998975e-01	9.825001e-05	9.996242e-01	2.428950e-03	9.737671e-01	2.277007e-01	2.892483e-01	1.000555e+00	9.925036e-05	2.510419e-01	
64	4.525306e-10	0.000000e+00	9.999093e-01	8.699776e-05	9.999034e-01	1.671148e-04	9.997029e-01	1.207037e-03	9.873061e-01	1.512830e-01	5.064685e-01	9.681029e-01	-2.366493e-04	1.676030e-01	
65	4.625306e-10	0.000000e+00	9.999098e-01	9.258085e-05	9.999077e-01	5.074623e-05	9.999012e-01	5.829248e-04	9.934107e-01	9.817829e-02	6.896331e-01	8.465780e-01	-1.249643e-03	1.081806e-01	
66	4.725306e-10	0.000000e+00	9.999096e-01	8.662861e-05	9.999087e-01	1.376841e-04	9.998345e-01	3.481720e-04	9.963318e-01	6.216532e-02	8.150508e-01	6.294984e-01	4.730375e-03	6.819798e-02	
67	4.819634e-10	0.000000e+00	9.999098e-01	9.181605e-05	9.999090e-01	5.061628e-05	9.999391e-01	1.868283e-04	9.978021e-01	4.020333e-02	8.891774e-01	4.066576e-01	5.400516e-02	4.399782e-02	
68	4.919634e-10	0.000000e+00	9.999097e-01	8.695359e-05	9.999098e-01	1.265934e-04	9.998669e-01	1.730578e-04	9.986401e-01	2.503114e-02	9.375327e-01	2.276495e-01	1.970168e-01	2.725003e-02	
69	5.019634e-10	0.000000e+00	9.999098e-01	9.133917e-05	9.999091e-01	5.637156e-05	9.999398e-01	9.918854e-05	9.991682e-01	1.544704e-02	9.651962e-01	1.235753e-01	4.015084e-01	1.677315e-02	
70	5.119634e-10	0.000000e+00	9.999097e-01	8.733500e-05	9.999101e-01	1.192963e-04	9.998797e-01	1.291657e-04	9.994283e-01	9.469215e-03	9.806766e-01	6.690855e-02	5.889773e-01	1.022954e-02	
71	5.197895e-10	0.000000e+00	9.999098e-01	9.090479e-05	9.999090e-01	6.312878e-05	9.999332e-01	8.102541e-05	9.996100e-01	6.417834e-03	9.877866e-01	4.100212e-02	6.971050e-01	6.942351e-03	
72	5.276223e-10	0.000000e+00	9.999097e-01	8.777088e-05	9.999101e-01	1.120877e-04	9.998886e-01	1.156365e-04	9.996750e-01	4.393285e-03	9.922934e-01	2.566438e-02	7.811194e-01	4.727294e-03	
73	5.359006e-10	0.000000e+00	9.999098e-01	9.051857e-05	9.999091e-01	6.925230e-05	9.999268e-01	7.784048e-05	9.997808e-01	2.883952e-03	9.952287e-01	1.576037e-02	8.535208e-01	3.111327e-03	
74	5.442169e-10	0.000000e+00	9.999098e-01	8.810358e-05	9.999101e-01	1.067528e-04	9.998946e-01	1.076834e-04	9.997969e-01	1.951356e-03	9.970962e-01	1.005713e-02	9.051612e-01	2.090751e-03	
75	5.526800e-10	0.000000e+00	9.999098e-01	9.022419e-05	9.999091e-01	7.389109e-05	9.999222e-01	7.818780e-05	9.998600e-01	1.262468e-03	9.981735e-01	6.331897e-03	9.390745e-01	1.358401e-03	
76	5.623125e-10	0.000000e+00	9.999098e-01	8.834806e-05	9.999100e-01	1.028921e-04	9.998985e-01	1.027099e-04	9.998557e-01	8.314617e-04	9.989704e-01	3.826390e-03	9.643848e-01	8.849330e-04	
77	5.723125e-10	0.000000e+00	9.999098e-01	9.002341e-05	9.999092e-01	7.703633e-05	9.999192e-01	7.925209e-05	9.998978e-01	5.024946e-04	9.993566e-01	2.248013e-03	9.794360e-01	5.386267e-04	
78	5.823125e-10	0.000000e+00	9.999098e-01	8.852492e-05	9.999099e-01	1.001225e-04	9.999012e-01	9.953837e-05	9.998822e-01	3.613961e-04	9.996365e-01	1.358679e-03	9.884016e-01	3.797594e-04	
79	5.923125e-10	0.000000e+00	9.999098e-01	8.986444e-05	9.999093e-01	7.951624e-05	9.999169e-01	8.078308e-05	9.999110e-01	2.272224e-04	9.997271e-01	8.159699e-04	9.933565e-01	2.415932e-04	
80	6.023125e-10	0.000000e+00	9.999098e-01	8.866753e-05	9.999099e-01	9.790065e-05	9.999032e-01	9.729146e-05	9.998929e-01	1.950601e-04	9.998355e-01	5.160001e-04	9.962265e-01	2.013133e-04	
81	6.123125e-10	0.000000e+00	9.999098e-01	8.973662e-05	9.999093e-01	8.150306e-05	9.999151e-01	8.231281e-05	9.999149e-01	1.324234e-04	9.998427e-01	3.304153e-04	9.978506e-01	1.390391e-04	
82	6.223125e-10	0.000000e+00	9.999098e-01	8.878198e-05	9.999098e-01	9.612428e-05	9.999047e-01	9.559195e-05	9.998976e-01	1.359375e-04	9.998945e-01	2.310201e-04	9.987197e-01	1.380638e-04	
83	6.323125e-10	0.000000e+00	9.999098e-01	8.963423e-05	9.999094e-01	8.308966e-05	9.999138e-01	8.366033e-05	9.999153e-01	1.006956e-04	9.998807e-01	1.684535e-04	9.992818e-01	1.045153e-04	
84	6.423125e-10	0.000000e+00	9.999098e-01	8.887352e-05	9.999098e-01	9.470757e-05	9.999059e-01	9.426384e-05	9.999001e-01	1.143860e-04	9.999111e-01	1.360477e-04	9.995085e-01	1.151455e-04	
85	6.523125e-10	0.000000e+00	9.999098e-01	8.955244e-05	9.999094e-01	8.435390e-05	9.999128e-01	8.478727e-05	9.999148e-01	9.073559e-05	9.998943e-01	1.153252e-04	9.997337e-01	9.352090e-05	
86	6.623125e-10	0.000000e+00	9.999098e-01	8.894657e-05	9.999097e-01	9.357969e-05	9.999068e-01	9.321147e-05	9.999017e-01	1.060199e-04	9.999149e-01	1.047816e-04	9.997591e-01	1.063580e-04	
87	6.723125e-10	0.000000e+00	9.999098e-01	8.948722e-05	9.999095e-01	8.535966e-05	9.999120e-01	8.570630e-05	9.999139e-01	8.816000e-05	9.999000e-01	9.813606e-05	9.998741e-01	9.053770e-05	
88	6.823125e-10	0.000000e+00	9.999098e-01	8.900478e-05	9.999097e-01	9.268276e-05	9.999075e-01	9.237312e-05	9.999028e-01	1.023474e-04	9.999150e-01	9.457991e-05	9.998407e-01	1.025853e-04	
89	6.923125e-10	0.000000e+00	9.999098e-01	8.943528e-05	9.999095e-01	8.615901e-05	9.999114e-01	8.644702e-05	9.999131e-01	8.800145e-05	9.999028e-01	9.263046e-05	9.999157e-01	9.019386e-05	
90	7.023125e-10	0.000000e+00	9.999098e-01	8.905110e-05	9.999097e-01	9.197021e-05	9.999080e-01	9.170557e-05	9.999037e-01	1.004148e-04	9.999141e-01	9.127678e-05	9.998692e-01	1.006614e-04	
91	7.123125e-10	0.000000e+00	9.999098e-01	8.939397e-05	9.999095e-01	8.679374e-05	9.999110e-01	8.703919e-05	9.999123e-01	8.856160e-05	9.999045e-01	9.087400e-05	9.999260e-01	9.064676e-05	
92	7.223125e-10	0.000000e+00	9.999098e-01	8.908795e-05	9.999096e-01	9.140450e-05	9.999083e-01	9.117480e-05	9.999045e-01	9.918527e-05	9.999131e-01	9.021961e-05	9.998808e-01	9.947805e-05	
93	7.323125e-10	0.000000e+00	9.999098e-01	8.936111e-05	9.999095e-01	8.729765e-05	9.999107e-01	8.751145e-05	9.999117e-01	8.927314e-05	9.999057e-01	9.030837e-05	9.999267e-01	9.127778e-05	
94	7.423125e-10	0.000000e+00	9.999098e-01	8.911724e-05	9.999096e-01	9.095559e-05	9.999086e-01	9.075334e-05	9.999051e-01	9.828701e-05	9.999123e-01	8.989169e-05	9.998869e-01	9.863948e-05	
95	7.523125e-10	0.000000e+00	9.999098e-01	8.933499e-05	9.999095e-01	8.769750e-05	9.999104e-01	8.788669e-05	9.999111e-01	8.995453e-05	9.999065e-01	9.011755e-05	9.999247e-01	9.188756e-05	
96	7.623125e-10	0.000000e+00	9.999098e-01	8.914053e-05	9.999096e-01	9.059946e-05	9.999089e-01	9.041908e-05	9.999056e-01	9.757798e-05	9.999116e-01	8.979968e-05	9.998910e-01	9.799485e-05	
97	7.723125e-10	0.000000e+00	9.999098e-01	8.931423e-05	9.999096e-01	8.801469e-05	9.999102e-01	8.818422e-05	9.999106e-01	9.055608e-05	9.999071e-01	9.004441e-05	9.999221e-01	9.242083e-05	
98	7.823125e-10	0.000000e+00	9.999098e-01	8.915903e-05	9.999096e-01	9.031698e-05	9.999090e-01	9.015435e-05	9.999060e-01	9.699765e-05	9.999111e-01	8.978321e-05	9.998940e-01	9.747990e-05	
99	7.923125e-10	0.000000e+00	9.999098e-01	8.929774e-05	9.999096e-01	8.826625e-05	9.999101e-01	8.841975e-05	9.999103e-01	9.107163e-05	9.999076e-01	9.000884e-05	9.999196e-01	9.287028e-05	
100	8.023125e-10	0.000000e+00	9.999098e-01	8.917374e-05	9.999096e-01	9.009298e-05	9.999091e-01	8.994498e-05	9.999064e-01	9.651522e-05	9.999106e-01	8.978999e-05	9.998965e-01	9.706180e-05	
101	8.123125e-10	0.000000e+00	9.999098e-01	8.928463e-05	9.999096e-01	8.846573e-05	9.999100e-01	8.860593e-05	9.999099e-01	9.150836e-05	9.999080e-01	8.998619e-05	9.999175e-01	9.324337e-05	
102	8.223125e-10	0.000000e+00	9.999098e-01	8.918543e-05	9.999096e-01	8.991535e-05	9.999092e-01	8.977959e-05	9.999067e-01	9.611158e-05	9.999103e-01	8.980296e-05	9.998985e-01	9.672011e-05	
103	8.323125e-10	0.000000e+00	9.999098e-01	8.927421e-05	9.999096e-01	8.862389e-05	9.999099e-01	8.875292e-05	9.999097e-01	9.187656e-05	9.999082e-01	8.996889e-05	9.999157e-01	9.355108e-05	
104	8.423125e-10	0.000000e+00	9.999098e-01	8.919472e-05	9.999096e-01	8.977453e-05	9.999093e-01	8.964913e-05	9.999069e-01	9.577300e-05	9.999101e-01	8.981657e-05	9.999002e-01	9.644013e-05	
105	8.523125e-10	0.000000e+00	9.999098e-01	8.926592e-05	9.999096e-01	8.874929e-05	9.999098e-01	8.886879e-05	9.999094e-01	9.218640e-05	9.999084e-01	8.995461e-05	9.999142e-01	9.380420e-05	
106	8.623125e-10	0.000000e+00	9.999098e-01	8.920211e-05	9.999096e-01	8.966289e-05	9.999094e-01	8.954637e-05	9.999071e-01	9.548866e-05	9.999099e-01	8.982909e-05	9.999015e-01	9.621043e-05	
107	8.723125e-10	0.000000e+00	9.999098e-01	8.925933e-05	9.999096e-01	8.884870e-05	9.999098e-01	8.896000e-05	9.999093e-01	9.244694e-05	9.999086e-01	8.994251e-05	9.999129e-01	9.401223e-05	
108	8.823125e-10	0.000000e+00	9.999098e-01	8.920799e-05	9.999096e-01	8.957439e-05	9.999094e-01	8.946555e-05	9.999073e-01	9.524977e-05	9.999098e-01	8.984008e-05	9.999026e-01	9.602182e-05	
109	8.923125e-10	0.000000e+00	9.999098e-01	8.925408e-05	9.999096e-01	8.892749e-05	9.999097e-01	8.903168e-05	9.999091e-01	9.266598e-05	9.999087e-01	8.993222e-05	9.999119e-01	9.418324e-05	
110	9.023125e-10	0.000000e+00	9.999098e-01	8.921267e-05	9.999096e-01	8.950425e-05	9.999094e-01	8.940210e-05	9.999074e-01	9.504898e-05	9.999097e-01	8.984953e-05	9.999036e-01	9.586682e-05	
111	9.123125e-10	0.000000e+00	9.999098e-01	8.924990e-05	9.999096e-01	8.898995e-05	9.999097e-01	8.908790e-05	9.999090e-01	9.285014e-05	9.999088e-01	8.992350e-05	9.999111e-01	9.432388e-05	
112	9.223125e-10	0.000000e+00	9.999098e-01	8.921640e-05	9.999096e-01	8.944866e-05	9.999095e-01	8.935239e-05	9.999075e-01	9.488019e-05	9.999096e-01	8.985757e-05	9.999043e-01	9.573930e-05	
113	9.323125e-10	0.000000e+00	9.999098e-01	8.924658e-05	9.999096e-01	8.903944e-05	9.999097e-01	8.913190e-05	9.999089e-01	9.300500e-05	9.999089e-01	8.991614e-05	9.999104e-01	9.443968e-05	
114	9.423125e-10	0.000000e+00	9.999098e-01	8.921937e-05	9.999096e-01	8.940460e-05	9.999095e-01	8.931356e-05	9.999076e-01	9.473824e-05	9.999095e-01	8.986435e-05	9.999049e-01	9.563426e-05	
115	9.523125e-10	0.000000e+00	9.999098e-01	8.924392e-05	9.999096e-01	8.907867e-05	9.999097e-01	8.916623e-05	9.999088e-01	9.313527e-05	9.999089e-01	8.990995e-05	9.999099e-01	9.453515e-05	
116	9.623125e-10	0.000000e+00	9.999098e-01	8.922175e-05	9.999096e-01	8.936969e-05	9.999095e-01	8.928331e-05	9.999077e-01	9.461884e-05	9.999095e-01	8.987004e-05	9.999054e-01	9.554761e-05	
117	9.723125e-10	0.000000e+00	9.999098e-01	8.924180e-05	9.999096e-01	8.910975e-05	9.999096e-01	8.919294e-05	9.999087e-01	9.324488e-05	9.999090e-01	8.990478e-05	9.999094e-01	9.461397e-05	
118	9.823125e-10	0.000000e+00	9.999098e-01	8.922364e-05	9.999096e-01	8.934203e-05	9.999095e-01	8.925983e-05	9.999078e-01	9.451835e-05	9.999094e-01	8.987478e-05	9.999058e-01	9.547603e-05	
119	9.923125e-10	0.000000e+00	9.999098e-01	8.924010e-05	9.999096e-01	8.913437e-05	9.999096e-01	8.921362e-05	9.999087e-01	9.333716e-05	9.999090e-01	8.990048e-05	9.999091e-01	9.467916e-05	
120	1.002313e-09	0.000000e+00	9.999098e-01	8.922516e-05	9.999096e-01	8.932012e-05	9.999095e-01	8.924170e-05	9.999078e-01	9.443374e-05	9.999094e-01	8.987873e-05	9.999061e-01	9.541678e-05	
121	1.012313e-09	0.000000e+00	9.999098e-01	8.923875e-05	9.999096e-01	8.915389e-05	9.999096e-01	8.922955e-05	9.999086e-01	9.341488e-05	9.999090e-01	8.989692e-05	9.999088e-01	9.473319e-05	
122	1.022313e-09	0.000000e+00	9.999098e-01	8.922637e-05	9.999096e-01	8.930276e-05	9.999095e-01	8.922778e-05	9.999079e-01	9.436246e-05	9.999094e-01	8.988198e-05	9.999064e-01	9.536764e-05	
123	1.032313e-09	0.000000e+00	9.999098e-01	8.923766e-05	9.999096e-01	8.916934e-05	9.999096e-01	8.924175e-05	9.999086e-01	9.348039e-05	9.999091e-01	8.989399e-05	9.999085e-01	9.477805e-05	
124	1.042313e-09	0.000000e+00	9.999098e-01	8.922735e-05	9.999096e-01	8.928901e-05	9.999095e-01	8.921718e-05	9.999079e-01	9.430237e-05	9.999094e-01	8.988466e-05	9.999066e-01	9.532680e-05	
125	1.052313e-09	0.000000e+00	9.999098e-01	8.923678e-05	9.999096e-01	8.918159e-05	9.999096e-01	8.925100e-05	9.999085e-01	9.353565e-05	9.999091e-01	8.989160e-05	9.999084e-01	9.481538e-05	
126	1.062313e-09	0.000000e+00	9.999098e-01	8.922814e-05	9.999096e-01	8.927812e-05	9.999095e-01	8.920918e-05	9.999079e-01	9.425167e-05	9.999093e-01	8.988684e-05	9.999068e-01	9.529278e-05	
127	1.072313e-09	0.000000e+00	9.999098e-01	8.923607e-05	9.999096e-01	8.919129e-05	9.999096e-01	8.925795e-05	9.999085e-01	9.358229e-05	9.999091e-01	8.988965e-05	9.999082e-01	9.484654e-05	
128	1.082313e-09	0.000000e+00	9.999098e-01	8.922877e-05	9.999096e-01	8.926949e-05	9.999095e-01	8.920322e-05	9.999080e-01	9.420886e-05	9.999093e-01	8.988861e-05	9.999069e-01	9.526436e-05	
129	1.092313e-09	0.000000e+00	9.999098e-01	8.923550e-05	9.999096e-01	8.919897e-05	9.999096e-01	8.926309e-05	9.999085e-01	9.362171e-05	9.999091e-01	8.988809e-05	9.999081e-01	9.487259e-05	
130	1.102313e-09	0.000000e+00	9.999098e-01	8.922929e-05	9.999096e-01	8.926265e-05	9.999095e-01	8.919886e-05	9.999080e-01	9.417267e-05	9.999093e-01	8.989003e-05	9.999070e-01	9.524057e-05	
131	1.112313e-09	0.000000e+00	9.999098e-01	8.923504e-05	9.999096e-01	8.920506e-05	9.999096e-01	8.926681e-05	9.999085e-01	9.365506e-05	9.999091e-01	8.988684e-05	9.999080e-01	9.489445e-05	
132	1.122313e-09	0.000000e+00	9.999098e-01	8.922971e-05	9.999096e-01	8.925724e-05	9.999095e-01	8.919575e-05	9.999080e-01	9.414204e-05	9.999093e-01	8.989116e-05	9.999071e-01	9.522059e-05	
133	1.132313e-09	0.000000e+00	9.999098e-01	8.923466e-05	9.999096e-01	8.920989e-05	9.999096e-01	8.926943e-05	9.999084e-01	9.368332e-05	9.999091e-01	8.988586e-05	9.999079e-01	9.491284e-05	
134	1.142313e-09	0.000000e+00	9.999098e-01	8.923005e-05	9.999096e-01	8.925295e-05	9.999095e-01	8.919362e-05	9.999080e-01	9.411608e-05	9.999093e-01	8.989205e-05	9.999072e-01	9.520377e-05	
135	1.152313e-09	0.000000e+00	9.999098e-01	8.923435e-05	9.999096e-01	8.921372e-05	9.999096e-01	8.927119e-05	9.999084e-01	9.370728e-05	9.999091e-01	8.988510e-05	9.999078e-01	9.492836e-05	
136	1.162313e-09	0.000000e+00	9.999098e-01	8.923033e-05	9.999096e-01	8.924954e-05	9.999095e-01	8.919224e-05	9.999080e-01	9.409405e-05	9.999093e-01	8.989273e-05	9.999073e-01	9.518955e-05	
137	1.172313e-09	0.000000e+00	9.999098e-01	8.923409e-05	9.999096e-01	8.921676e-05	9.999096e-01	8.927228e-05	9.999084e-01	9.372765e-05	9.999091e-01	8.988452e-05	9.999078e-01	9.494151e-05	
138	1.182313e-09	0.000000e+00	9.999098e-01	8.923057e-05	9.999096e-01	8.924684e-05	9.999096e-01	8.919144e-05	9.999080e-01	9.407531e-05	9.999093e-01	8.989325e-05	9.999073e-01	9.517750e-05	
139	1.192313e-09	0.000000e+00	9.999098e-01	8.923388e-05	9.999096e-01	8.921917e-05	9.999096e-01	8.927287e-05	9.999084e-01	9.374499e-05	9.999091e-01	8.988409e-05	9.999077e-01	9.495267e-05	
140	1.202313e-09	0.000000e+00	9.999098e-01	8.923076e-05	9.999096e-01	8.924469e-05	9.999096e-01	8.919109e-05	9.999081e-01	9.405935e-05	9.999093e-01	8.989363e-05	9.999074e-01	9.516725e-05	
141	1.212313e-09	0.000000e+00	9.999098e-01	8.923370e-05	9.999096e-01	8.922109e-05	9.999096e-01	8.927306e-05	9.999084e-01	9.375979e-05	9.999091e-01	8.988379e-05	9.999077e-01	9.496219e-05	
142	1.222313e-09	0.000000e+00	9.999098e-01	8.923092e-05	9.999096e-01	8.924298e-05	9.999096e-01	8.919108e-05	9.999081e-01	9.404572e-05	9.999093e-01	8.989390e-05	9.999074e-01	9.515850e-05	
143	1.232313e-09	0.000000e+00	9.999098e-01	8.923355e-05	9.999096e-01	8.922262e-05	9.999096e-01	8.927295e-05	9.999084e-01	9.377244e-05	9.999091e-01	8.988358e-05	9.999076e-01	9.497035e-05	
144	1.242313e-09	0.000000e+00	9.999098e-01	8.923106e-05	9.999096e-01	8.924162e-05	9.999096e-01	8.919132e-05	9.999081e-01	9.403406e-05	9.999093e-01	8.989408e-05	9.999074e-01	9.515099e-05	
145	1.252313e-09	0.000000e+00	9.999098e-01	8.923342e-05	9.999096e-01	8.922384e-05	9.999096e-01	8.927263e-05	9.999084e-01	9.378329e-05	9.999091e-01	8.988346e-05	9.999076e-01	9.497735e-05	
146	1.262313e-09	0.000000e+00	9.999098e-01	8.923118e-05	9.999096e-01	8.924053e-05	9.999096e-01	8.919176e-05	9.999081e-01	9.402405e-05	9.999093e-01	8.989418e-05	9.999074e-01	9.514454e-05	
147	1.272313e-09	0.000000e+00	9.999098e-01	8.923332e-05	9.999096e-01	8.922483e-05	9.999096e-01	8.927213e-05	9.999084e-01	9.379262e-05	9.999091e-01	8.988341e-05	9.999076e-01	9.498340e-05	
148	1.282313e-09	0.000000e+00	9.999098e-01	8.923128e-05	9.999096e-01	8.923965e-05	9.999096e-01	8.919234e-05	9.999081e-01	9.401543e-05	9.999093e-01	8.989422e-05	9.999075e-01	9.513896e-05	
149	1.292313e-09	0.000000e+00	9.999098e-01	8.923322e-05	9.999096e-01	8.922562e-05	9.999096e-01	8.927152e-05	9.999084e-01	9.380066e-05	9.999091e-01	8.988342e-05	9.999076e-01	9.498864e-05	
150	1.302313e-09	0.000000e+00	9.999098e-01	8.923137e-05	9.999096e-01	8.923895e-05	9.999096e-01	8.919302e-05	9.999081e-01	9.400800e-05	9.999093e-01	8.989421e-05	9.999075e-01	9.513412e-05	
151	1.312313e-09	0.000000e+00	9.999098e-01	8.923314e-05	9.999096e-01	8.922626e-05	9.999096e-01	8.927082e-05	9.999084e-01	9.380762e-05	9.999092e-01	8.988346e-05	9.999076e-01	9.499319e-05	
152	1.322313e-09	0.000000e+00	9.999098e-01	8.923144e-05	9.999096e-01	8.923837e-05	9.999096e-01	8.919376e-05	9.999081e-01	9.400155e-05	9.999093e-01	8.989416e-05	9.999075e-01	9.512991e-05	
153	1.332313e-09	0.000000e+00	9.999098e-01	8.923307e-05	9.999096e-01	8.922678e-05	9.999096e-01	8.927007e-05	9.999084e-01	9.381367e-05	9.999092e-01	8.988354e-05	9.999076e-01	9.499718e-05	
154	1.342313e-09	0.000000e+00	9.999098e-01	8.923151e-05	9.999096e-01	8.923790e-05	9.999096e-01	8.919455e-05	9.999081e-01	9.399595e-05	9.999093e-01	8.989408e-05	9.999075e-01	9.512622e-05	
155	1.352313e-09	0.000000e+00	9.999098e-01	8.923301e-05	9.999096e-01	8.922721e-05	9.999096e-01	8.926928e-05	9.999084e-01	9.381894e-05	9.999092e-01	8.988365e-05	9.999076e-01	9.500068e-05	
156	1.362313e-09	0.000000e+00	9.999098e-01	8.923157e-05	9.999096e-01	8.923751e-05	9.999096e-01	8.919537e-05	9.999081e-01	9.399106e-05	9.999093e-01	8.989398e-05	9.999075e-01	9.512298e-05	
157	1.372313e-09	0.000000e+00	9.999098e-01	8.923295e-05	9.999096e-01	8.922757e-05	9.999096e-01	8.926847e-05	9.999084e-01	9.382355e-05	9.999092e-01	8.988378e-05	9.999076e-01	9.500376e-05	
158	1.382313e-09	0.000000e+00	9.999098e-01	8.923162e-05	9.999096e-01	8.923719e-05	9.999096e-01	8.919620e-05	9.999081e-01	9.398678e-05	9.999093e-01	8.989385e-05	9.999075e-01	9.512012e-05	
159	1.392313e-09	0.000000e+00	9.999098e-01	8.923290e-05	9.999096e-01	8.922787e-05	9.999096e-01	8.926766e-05	9.999083e-01	9.382760e-05	9.999092e-01	8.988392e-05	9.999075e-01	9.500649e-05	
160	1.402313e-09	0.000000e+00	9.999098e-01	8.923167e-05	9.999096e-01	8.923691e-05	9.999096e-01	8.919704e-05	9.999081e-01	9.398301e-05	9.999093e-01	8.989372e-05	9.999075e-01	9.511758e-05	
161	1.412313e-09	0.000000e+00	9.999098e-01	8.923285e-05	9.999096e-01	8.922813e-05	9.999096e-01	8.926684e-05	9.999083e-01	9.383118e-05	9.999092e-01	8.988408e-05	9.999075e-01	9.500893e-05	
162	1.422313e-09	0.000000e+00	9.999098e-01	8.923172e-05	9.999096e-01	8.923667e-05	9.999096e-01	8.919786e-05	9.999081e-01	9.397968e-05	9.999093e-01	8.989357e-05	9.999075e-01	9.511532e-05	
163	1.432313e-09	0.000000e+00	9.999098e-01	8.923281e-05	9.999096e-01	8.922836e-05	9.999096e-01	8.926604e-05	9.999083e-01	9.383435e-05	9.999092e-01	8.988424e-05	9.999075e-01	9.501110e-05	
164	1.442313e-09	0.000000e+00	9.999098e-01	8.923176e-05	9.999096e-01	8.923647e-05	9.999096e-01	8.919867e-05	9.999081e-01	9.397672e-05	9.999093e-01	8.989342e-05	9.999075e-01	9.511330e-05	
165	1.452313e-09	0.000000e+00	9.999098e-01	8.923277e-05	9.999096e-01	8.922856e-05	9.999096e-01	8.926525e-05	9.999083e-01	9.383718e-05	9.999092e-01	8.988441e-05	9.999075e-01	9.501305e-05	
166	1.462313e-09	0.000000e+00	9.999098e-01	8.923180e-05	9.999096e-01	8.923628e-05	9.999096e-01	8.919947e-05	9.999081e-01	9.397408e-05	9.999093e-01	8.989326e-05	9.999075e-01	9.511148e-05	
167	1.472313e-09	0.000000e+00	9.999098e-01	8.923273e-05	9.999096e-01	8.922873e-05	9.999096e-01	8.926448e-05	9.999083e-01	9.383971e-05	9.999092e-01	8.988459e-05	9.999075e-01	9.501481e-05	
168	1.482313e-09	0.000000e+00	9.999098e-01	8.923183e-05	9.999096e-01	8.923612e-05	9.999096e-01	8.920024e-05	9.999081e-01	9.397171e-05	9.999093e-01	8.989310e-05	9.999075e-01	9.510984e-05	
169	1.492313e-09	0.000000e+00	9.999098e-01	8.923270e-05	9.999096e-01	8.922890e-05	9.999096e-01	8.926373e-05	9.999083e-01	9.384199e-05	9.999092e-01	8.988476e-05	9.999075e-01	9.501640e-05	
170	1.502313e-09	0.000000e+00	9.999098e-01	8.923186e-05	9.999096e-01	8.923597e-05	9.999096e-01	8.920099e-05	9.999081e-01	9.396958e-05	9.999093e-01	8.989293e-05	9.999075e-01	9.510836e-05	
171	1.512313e-09	0.000000e+00	9.999098e-01	8.923267e-05	9.999096e-01	8.922904e-05	9.999096e-01	8.926301e-05	9.999083e-01	9.384405e-05	9.999092e-01	8.988494e-05	9.999075e-01	9.501785e-05	
172	1.522313e-09	0.000000e+00	9.999098e-01	8.923189e-05	9.999096e-01	8.923582e-05	9.999096e-01	8.920172e-05	9.999081e-01	9.396765e-05	9.999093e-01	8.989277e-05	9.999075e-01	9.510701e-05	
173	1.532313e-09	0.000000e+00	9.999098e-01	8.923264e-05	9.999096e-01	8.922919e-05	9.999096e-01	8.926231e-05	9.999083e-01	9.384591e-05	9.999092e-01	8.988512e-05	9.999075e-01	9.501918e-05	
174	1.542313e-09	0.000000e+00	9.999098e-01	8.923192e-05	9.999096e-01	8.923569e-05	9.999096e-01	8.920242e-05	9.999081e-01	9.396589e-05	9.999093e-01	8.989261e-05	9.999075e-01	9.510577e-05	
175	1.552313e-09	0.000000e+00	9.999098e-01	8.923261e-05	9.999096e-01	8.922932e-05	9.999096e-01	8.926163e-05	9.999083e-01	9.384762e-05	9.999092e-01	8.988529e-05	9.999075e-01	9.502039e-05	
176	1.562313e-09	0.000000e+00	9.999098e-01	8.923195e-05	9.999096e-01	8.923556e-05	9.999096e-01	8.920310e-05	9.999081e-01	9.396429e-05	9.999093e-01	8.989245e-05	9.999075e-01	9.510464e-05	
177	1.572313e-09	0.000000e+00	9.999098e-01	8.923259e-05	9.999096e-01	8.922945e-05	9.999096e-01	8.926098e-05	9.999083e-01	9.384918e-05	9.999092e-01	8.988546e-05	9.999075e-01	9.502150e-05	
178	1.582313e-09	0.000000e+00	9.999098e-01	8.923197e-05	9.999096e-01	8.923544e-05	9.999096e-01	8.920375e-05	9.999081e-01	9.396282e-05	9.999093e-01	8.989229e-05	9.999075e-01	9.510360e-05	
179	1.592313e-09	0.000000e+00	9.999098e-01	8.923256e-05	9.999096e-01	8.922957e-05	9.999096e-01	8.926035e-05	9.999083e-01	9.385062e-05	9.999092e-01	8.988563e-05	9.999075e-01	9.502253e-05	
180	1.602313e-09	0.000000e+00	9.999098e-01	8.923200e-05	9.999096e-01	8.923532e-05	9.999096e-01	8.920438e-05	9.999081e-01	9.396147e-05	9.999093e-01	8.989213e-05	9.999075e-01	9.510264e-05	
181	1.612313e-09	0.000000e+00	9.999098e-01	8.923254e-05	9.999096e-01	8.922969e-05	9.999096e-01	8.925975e-05	9.999083e-01	9.385194e-05	9.999092e-01	8.988580e-05	9.999075e-01	9.502348e-05	
182	1.622313e-09	0.000000e+00	9.999098e-01	8.923202e-05	9.999096e-01	8.923521e-05	9.999096e-01	8.920498e-05	9.999081e-01	9.396021e-05	9.999093e-01	8.989198e-05	9.999075e-01	9.510175e-05	
183	1.632313e-09	0.000000e+00	9.999098e-01	8.923252e-05	9.999096e-01	8.922981e-05	9.999096e-01	8.925917e-05	9.999083e-01	9.385317e-05	9.999092e-01	8.988596e-05	9.999075e-01	9.502437e-05	
184	1.642313e-09	0.000000e+00	9.999098e-01	8.923204e-05	9.999096e-01	8.923509e-05	9.999096e-01	8.920556e-05	9.999081e-01	9.395905e-05	9.999093e-01	8.989183e-05	9.999075e-01	9.510092e-05	
185	1.652313e-09	0.000000e+00	9.999098e-01	8.923249e-05	9.999096e-01	8.922992e-05	9.999096e-01	8.925862e-05	9.999083e-01	9.385432e-05	9.999092e-01	8.988612e-05	9.999075e-01	9.502519e-05	
186	1.662313e-09	0.000000e+00	9.999098e-01	8.923206e-05	9.999096e-01	8.923498e-05	9.999096e-01	8.920611e-05	9.999082e-01	9.395797e-05	9.999093e-01	8.989168e-05	9.999075e-01	9.510015e-05	
187	1.672313e-09	0.000000e+00	9.999098e-01	8.923247e-05	9.999096e-01	8.923004e-05	9.999096e-01	8.925809e-05	9.999083e-01	9.385538e-05	9.999092e-01	8.988628e-05	9.999075e-01	9.502597e-05	
188	1.682313e-09	0.000000e+00	9.999098e-01	8.923208e-05	9.999096e-01	8.923487e-05	9.999096e-01	8.920664e-05	9.999082e-01	9.395696e-05	9.999093e-01	8.989154e-05	9.999075e-01	9.509943e-05	
189	1.692313e-09	0.000000e+00	9.999098e-01	8.923246e-05	9.999096e-01	8.923015e-05	9.999096e-01	8.925757e-05	9.999083e-01	9.385639e-05	9.999092e-01	8.988643e-05	9.999075e-01	9.502669e-05	
190	1.702313e-09	0.000000e+00	9.999098e-01	8.923210e-05	9.999096e-01	8.923476e-05	9.999096e-01	8.920715e-05	9.999082e-01	9.395602e-05	9.999093e-01	8.989140e-05	9.999075e-01	9.509875e-05	
191	1.712313e-09	0.000000e+00	9.999098e-01	8.923244e-05	9.999096e-01	8.923026e-05	9.999096e-01	8.925709e-05	9.999083e-01	9.385733e-05	9.999092e-01	8.988658e-05	9.999075e-01	9.502737e-05	
192	1.722313e-09	0.000000e+00	9.999098e-01	8.923212e-05	9.999096e-01	8.923465e-05	9.999096e-01	8.920764e-05	9.999082e-01	9.395513e-05	9.999093e-01	8.989127e-05	9.999075e-01	9.509812e-05	
193	1.732313e-09	0.000000e+00	9.999098e-01	8.923242e-05	9.999096e-01	8.923038e-05	9.999096e-01	8.925662e-05	9.999083e-01	9.385821e-05	9.999092e-01	8.988672e-05	9.999075e-01	9.502801e-05	
194	1.742313e-09	0.000000e+00	9.999098e-01	8.923213e-05	9.999096e-01	8.923454e-05	9.999096e-01	8.920811e-05	9.999082e-01	9.395429e-05	9.999093e-01	8.989114e-05	9.999075e-01	9.509752e-05	
195	1.752313e-09	0.000000e+00	9.999098e-01	8.923240e-05	9.999096e-01	8.923049e-05	9.999096e-01	8.925617e-05	9.999083e-01	9.385905e-05	9.999092e-01	8.988686e-05	9.999075e-01	9.502861e-05	
196	1.762313e-09	0.000000e+00	9.999098e-01	8.923215e-05	9.999096e-01	8.923444e-05	9.999096e-01	8.920856e-05	9.999082e-01	9.395349e-05	9.999093e-01	8.989101e-05	9.999075e-01	9.509696e-05	
197	1.772313e-09	0.000000e+00	9.999098e-01	8.923239e-05	9.999096e-01	8.923060e-05	9.999096e-01	8.925574e-05	9.999083e-01	9.385984e-05	9.999092e-01	8.988700e-05	9.999075e-01	9.502918e-05	
198	1.782313e-09	0.000000e+00	9.999098e-01	8.923217e-05	9.999096e-01	8.923433e-05	9.999096e-01	8.920899e-05	9.999082e-01	9.395274e-05	9.999093e-01	8.989089e-05	9.999075e-01	9.509643e-05	
199	1.792313e-09	0.000000e+00	9.999098e-01	8.923237e-05	9.999096e-01	8.923071e-05	9.999096e-01	8.925533e-05	9.999083e-01	9.386059e-05	9.999092e-01	8.988713e-05	9.999075e-01	9.502972e-05	
200	1.802313e-09	0.000000e+00	9.999098e-01	8.923218e-05	9.999096e-01	8.923422e-05	9.999096e-01	8.920940e-05	9.999082e-01	9.395203e-05	9.999093e-01	8.989077e-05	9.999075e-01	9.509593e-05	
201	1.812313e-09	0.000000e+00	9.999098e-01	8.923236e-05	9.999096e-01	8.923081e-05	9.999096e-01	8.925493e-05	9.999083e-01	9.386130e-05	9.999092e-01	8.988726e-05	9.999075e-01	9.503023e-05	
202	1.822313e-09	0.000000e+00	9.999098e-01	8.923219e-05	9.999096e-01	8.923412e-05	9.999096e-01	8.920980e-05	9.999082e-01	9.395136e-05	9.999093e-01	8.989065e-05	9.999075e-01	9.509545e-05	
203	1.832313e-09	0.000000e+00	9.999098e-01	8.923235e-05	9.999096e-01	8.923092e-05	9.999096e-01	8.925455e-05	9.999083e-01	9.386198e-05	9.999092e-01	8.988738e-05	9.999075e-01	9.503072e-05	
204	1.842313e-09	0.000000e+00	9.999098e-01	8.923221e-05	9.999096e-01	8.923401e-05	9.999096e-01	8.921018e-05	9.999082e-01	9.395071e-05	9.999093e-01	8.989054e-05	9.999075e-01	9.509499e-05	
205	1.852313e-09	0.000000e+00	9.999098e-01	8.923233e-05	9.999096e-01	8.923103e-05	9.999096e-01	8.925419e-05	9.999083e-01	9.386263e-05	9.999092e-01	8.988751e-05	9.999075e-01	9.503118e-05	
206	1.862313e-09	0.000000e+00	9.999098e-01	8.923222e-05	9.999096e-01	8.923391e-05	9.999096e-01	8.921054e-05	9.999082e-01	9.395010e-05	9.999093e-01	8.989043e-05	9.999075e-01	9.509456e-05	
207	1.872313e-09	0.000000e+00	9.999098e-01	8.923232e-05	9.999096e-01	8.923113e-05	9.999096e-01	8.925384e-05	9.999083e-01	9.386325e-05	9.999092e-01	8.988762e-05	9.999075e-01	9.503162e-05	
208	1.882313e-09	0.000000e+00	9.999098e-01	8.923223e-05	9.999096e-01	8.923381e-05	9.999096e-01	8.921089e-05	9.999082e-01	9.394952e-05	9.999093e-01	8.989033e-05	9.999075e-01	9.509415e-05	
209	1.892313e-09	0.000000e+00	9.999098e-01	8.923231e-05	9.999096e-01	8.923124e-05	9.999096e-01	8.925351e-05	9.999083e-01	9.386384e-05	9.999092e-01	8.988774e-05	9.999075e-01	9.503205e-05	
210	1.902313e-09	0.000000e+00	9.999098e-01	8.923224e-05	9.999096e-01	8.923370e-05	9.999096e-01	8.921123e-05	9.999082e-01	9.394896e-05	9.999093e-01	8.989022e-05	9.999075e-01	9.509376e-05	
211	1.912313e-09	0.000000e+00	9.999098e-01	8.923230e-05	9.999096e-01	8.923134e-05	9.999096e-01	8.925319e-05	9.999083e-01	9.386440e-05	9.999092e-01	8.988785e-05	9.999075e-01	9.503245e-05	
212	1.922313e-09	0.000000e+00	9.999098e-01	8.923225e-05	9.999096e-01	8.923360e-05	9.999096e-01	8.921155e-05	9.999082e-01	9.394842e-05	9.999093e-01	8.989012e-05	9.999075e-01	9.509338e-05	
213	1.932313e-09	0.000000e+00	9.999098e-01	8.923229e-05	9.999096e-01	8.923145e-05	9.999096e-01	8.925288e-05	9.999083e-01	9.386494e-05	9.999092e-01	8.988796e-05	9.999075e-01	9.503284e-05	
214	1.942313e-09	0.000000e+00	9.999098e-01	8.923226e-05	9.999096e-01	8.923350e-05	9.999096e-01	8.921186e-05	9.999082e-01	9.394791e-05	9.999093e-01	8.989003e-05	9.999075e-01	9.509302e-05	
215	1.952313e-09	0.000000e+00	9.999098e-01	8.923228e-05	9.999096e-01	8.923155e-05	9.999096e-01	8.925259e-05	9.999083e-01	9.386546e-05	9.999092e-01	8.988806e-05	9.999075e-01	9.503321e-05	
216	1.962313e-09	0.000000e+00	9.999098e-01	8.923227e-05	9.999096e-01	8.923340e-05	9.999096e-01	8.921215e-05	9.999082e-01	9.394742e-05	9.999093e-01	8.988993e-05	9.999075e-01	9.509268e-05	
217	1.972313e-09	0.000000e+00	9.999098e-01	8.923227e-05	9.999096e-01	8.923165e-05	9.999096e-01	8.925230e-05	9.999083e-01	9.386596e-05	9.999092e-01	8.988817e-05	9.999075e-01	9.503356e-05	
218	1.982313e-09	0.000000e+00	9.999098e-01	8.923228e-05	9.999096e-01	8.923330e-05	9.999096e-01	8.921244e-05	9.999082e-01	9.394694e-05	9.999093e-01	8.988984e-05	9.999075e-01	9.509235e-05	
219	1.992313e-09	0.000000e+00	9.999098e-01	8.923226e-05	9.999096e-01	8.923175e-05	9.999096e-01	8.925203e-05	9.999083e-01	9.386644e-05	9.999092e-01	8.988827e-05	9.999075e-01	9.503390e-05	
220	2.000000e-09	0.000000e+00	9.999098e-01	8.923229e-05	9.999096e-01	8.923320e-05	9.999096e-01	8.921275e-05	9.999082e-01	9.394641e-05	9.999093e-01	8.988977e-05	9.999075e-01	9.509198e-05	

                                                                                                                * spice from s2s
                                                                                                                Transient Analysis  Sat Feb  7 10:40:23  2009
------------------------------------------------------------------------------------------------------------------------------------------------------------------------------------------------------------------------------------------------
Index   time            v(n38)          v(n48)          v(n54)          v(n30)          v(n40)          v(n46)          v(n58)          v(n56)          v(n42)          v(n44)          v(n60)          v(n62)          v(n2)           
------------------------------------------------------------------------------------------------------------------------------------------------------------------------------------------------------------------------------------------------
0	0.000000e+00	0.000000e+00	1.000000e+00	0.000000e+00	1.000000e+00	0.000000e+00	1.000000e+00	0.000000e+00	0.000000e+00	0.000000e+00	1.000000e+00	0.000000e+00	0.000000e+00	1.000000e+00	
1	1.000000e-13	-5.220019e-04	9.633576e-01	-1.493194e-03	9.929178e-01	-1.732513e-03	9.436605e-01	-9.538356e-04	-3.848736e-06	-1.216371e-03	9.520806e-01	-9.940127e-04	-9.940144e-04	9.649053e-01	
2	1.262190e-13	-6.892724e-04	9.541112e-01	-1.960562e-03	9.905679e-01	-2.272027e-03	9.300320e-01	-1.256155e-03	-5.211655e-06	-1.601353e-03	9.403556e-01	-1.308867e-03	-1.308870e-03	9.558853e-01	
3	1.786571e-13	-1.076180e-03	9.363077e-01	-3.010365e-03	9.849752e-01	-3.473393e-03	9.048647e-01	-1.946214e-03	-8.811358e-06	-2.477328e-03	9.184530e-01	-2.027042e-03	-2.027046e-03	9.382031e-01	
4	2.835332e-13	-2.090153e-03	9.044771e-01	-5.521536e-03	9.699784e-01	-6.252918e-03	8.650864e-01	-3.686347e-03	-2.335276e-05	-4.652814e-03	8.825995e-01	-3.834817e-03	-3.834823e-03	9.049187e-01	
5	4.932854e-13	-4.586800e-03	8.529422e-01	-1.067178e-02	9.360107e-01	-1.160540e-02	8.135034e-01	-7.698786e-03	-1.000861e-04	-9.468932e-03	8.328647e-01	-7.990927e-03	-7.990939e-03	8.459714e-01	
6	9.127899e-13	-9.575516e-03	7.825460e-01	-1.770568e-02	8.823224e-01	-1.872542e-02	7.646939e-01	-1.491779e-02	-5.106604e-04	-1.751796e-02	7.794302e-01	-1.543185e-02	-1.543187e-02	7.536356e-01	
7	1.366770e-12	-1.358023e-02	7.369138e-01	-1.990167e-02	8.508683e-01	-2.188043e-02	7.453226e-01	-1.985852e-02	-1.323317e-03	-2.251087e-02	7.531881e-01	-2.050292e-02	-2.050294e-02	6.843332e-01	
8	2.093219e-12	-1.664545e-02	6.967990e-01	-1.784392e-02	8.294950e-01	-2.264136e-02	7.350672e-01	-2.255752e-02	-2.992107e-03	-2.489150e-02	7.343462e-01	-2.338202e-02	-2.338204e-02	6.182307e-01	
9	3.090748e-12	-1.679893e-02	6.765714e-01	-1.289934e-02	8.212546e-01	-2.062096e-02	7.393633e-01	-2.102235e-02	-5.028061e-03	-2.306331e-02	7.303393e-01	-2.228269e-02	-2.228271e-02	5.828776e-01	
10	4.761999e-12	-1.351393e-02	6.814045e-01	-6.224377e-03	8.236735e-01	-1.538593e-02	7.617975e-01	-1.495325e-02	-6.412745e-03	-1.692289e-02	7.451479e-01	-1.708082e-02	-1.708082e-02	5.895094e-01	
11	7.151626e-12	-8.254637e-03	7.162021e-01	6.285768e-04	8.377209e-01	-8.239927e-03	7.996491e-01	-6.852096e-03	-5.241200e-03	-8.937005e-03	7.790403e-01	-9.471786e-03	-9.471779e-03	6.452879e-01	
12	1.037851e-11	-3.265979e-03	7.694435e-01	6.687454e-03	8.599844e-01	-1.565177e-03	8.455735e-01	7.665935e-05	-2.257594e-03	-1.889609e-03	8.244224e-01	-1.883751e-03	-1.883741e-03	7.257761e-01	
13	1.493518e-11	9.651949e-04	8.332366e-01	1.022039e-02	8.885473e-01	3.317220e-03	8.948678e-01	4.521691e-03	7.654906e-04	3.337664e-03	8.759571e-01	3.990039e-03	3.990047e-03	8.134509e-01	
14	2.102953e-11	3.629725e-03	8.937071e-01	1.004596e-02	9.186502e-01	5.473088e-03	9.378627e-01	5.902644e-03	2.794229e-03	5.755233e-03	9.229251e-01	6.589708e-03	6.589712e-03	8.892695e-01	
15	2.932413e-11	4.245109e-03	9.432252e-01	7.556254e-03	9.472436e-01	5.061189e-03	9.701849e-01	5.161521e-03	3.528949e-03	5.398092e-03	9.602624e-01	6.408861e-03	6.408862e-03	9.460834e-01	
16	3.932413e-11	3.307555e-03	9.737920e-01	4.746851e-03	9.688136e-01	3.350592e-03	9.879453e-01	3.637999e-03	2.970164e-03	3.580352e-03	9.823979e-01	4.757726e-03	4.757724e-03	9.776371e-01	
17	4.932413e-11	2.180649e-03	9.879191e-01	2.823892e-03	9.815549e-01	1.941080e-03	9.950734e-01	2.416691e-03	2.108140e-03	2.074749e-03	9.921821e-01	3.197395e-03	3.197393e-03	9.906461e-01	
18	5.932413e-11	1.343012e-03	9.943921e-01	1.636196e-03	9.890863e-01	1.084479e-03	9.979468e-01	1.577101e-03	1.406805e-03	1.153226e-03	9.964810e-01	2.081757e-03	2.081755e-03	9.960208e-01	
19	6.932413e-11	8.114831e-04	9.973782e-01	9.468691e-04	9.935249e-01	6.127397e-04	9.991010e-01	1.028141e-03	9.283646e-04	6.490370e-04	9.983917e-01	1.343503e-03	1.343502e-03	9.982517e-01	
20	7.932413e-11	4.957694e-04	9.987344e-01	5.562261e-04	9.961499e-01	3.653318e-04	9.995749e-01	6.777701e-04	6.155512e-04	3.825386e-04	9.992228e-01	8.730075e-04	8.730067e-04	9.991912e-01	
21	8.932413e-11	3.159993e-04	9.993718e-01	3.421553e-04	9.976904e-01	2.356200e-04	9.997660e-01	4.576205e-04	4.195347e-04	2.452169e-04	9.996064e-01	5.765045e-04	5.765040e-04	9.995907e-01	
22	9.932413e-11	2.149776e-04	9.996544e-01	2.249214e-04	9.986051e-01	1.688331e-04	9.998481e-01	3.201981e-04	2.958371e-04	1.730217e-04	9.997642e-01	3.926855e-04	3.926852e-04	9.997654e-01	
23	1.093241e-10	1.592777e-04	9.997950e-01	1.627375e-04	9.991371e-01	1.328216e-04	9.998807e-01	2.350815e-04	2.200498e-04	1.357489e-04	9.998481e-01	2.783800e-04	2.783798e-04	9.998426e-01	
24	1.193241e-10	1.282468e-04	9.998520e-01	1.291401e-04	9.994569e-01	1.142621e-04	9.998963e-01	1.823325e-04	1.724431e-04	1.153079e-04	9.998742e-01	2.084052e-04	2.084051e-04	9.998782e-01	
25	1.293241e-10	1.113207e-04	9.998856e-01	1.117683e-04	9.996389e-01	1.035155e-04	9.999020e-01	1.498898e-04	1.436702e-04	1.047272e-04	9.998974e-01	1.650230e-04	1.650229e-04	9.998947e-01	
26	1.393241e-10	1.017305e-04	9.998954e-01	1.023796e-04	9.997521e-01	9.817881e-05	9.999056e-01	1.297943e-04	1.254449e-04	9.846566e-05	9.998978e-01	1.387136e-04	1.387135e-04	9.999028e-01	
27	1.493241e-10	9.656160e-05	9.999050e-01	9.764469e-05	9.998129e-01	9.463449e-05	9.999065e-01	1.175136e-04	1.146399e-04	9.535693e-05	9.999076e-01	1.223506e-04	1.223506e-04	9.999067e-01	
28	1.593241e-10	9.350647e-05	9.999054e-01	9.506353e-05	9.998542e-01	9.314307e-05	9.999076e-01	1.098666e-04	1.076295e-04	9.325405e-05	9.999036e-01	1.125344e-04	1.125344e-04	9.999087e-01	
29	1.693241e-10	9.192409e-05	9.999090e-01	9.378477e-05	9.998732e-01	9.180946e-05	9.999077e-01	1.052437e-04	1.036318e-04	9.236619e-05	9.999096e-01	1.063685e-04	1.063685e-04	9.999097e-01	
30	1.793241e-10	9.090040e-05	9.999078e-01	9.309519e-05	9.998895e-01	9.149035e-05	9.999081e-01	1.023233e-04	1.008919e-04	9.157331e-05	9.999053e-01	1.027319e-04	1.027319e-04	9.999103e-01	
31	1.893241e-10	9.043038e-05	9.999097e-01	9.273524e-05	9.998941e-01	9.088614e-05	9.999080e-01	1.005976e-04	9.945803e-05	9.137196e-05	9.999098e-01	1.003995e-04	1.003995e-04	9.999106e-01	
32	1.993241e-10	9.005800e-05	9.999086e-01	9.257373e-05	9.999016e-01	9.092704e-05	9.999082e-01	9.947141e-05	9.834911e-05	9.101971e-05	9.999061e-01	9.906643e-05	9.906642e-05	9.999107e-01	
33	2.000000e-10	9.007977e-05	9.999091e-01	9.251481e-05	9.998997e-01	9.076178e-05	9.999082e-01	9.943414e-05	9.837536e-05	9.109971e-05	9.999082e-01	9.896837e-05	9.896836e-05	9.999107e-01	
34	2.010000e-10	9.005307e-05	9.999092e-01	9.253811e-05	9.999006e-01	9.078099e-05	9.999082e-01	9.935962e-05	9.829773e-05	9.106621e-05	9.999080e-01	9.887682e-05	9.887681e-05	9.999108e-01	
35	2.030000e-10	9.001250e-05	9.999092e-01	9.252113e-05	9.999013e-01	9.076532e-05	9.999082e-01	9.921129e-05	9.816283e-05	9.103563e-05	9.999079e-01	9.868941e-05	9.868940e-05	9.999108e-01	
36	2.070000e-10	8.994669e-05	9.999092e-01	9.248377e-05	9.999023e-01	9.071357e-05	9.999082e-01	9.895831e-05	9.793809e-05	9.099371e-05	9.999080e-01	9.836864e-05	9.836863e-05	9.999108e-01	
37	2.150000e-10	8.984702e-05	9.999093e-01	9.243691e-05	9.999038e-01	9.065472e-05	9.999082e-01	9.857106e-05	9.758977e-05	9.092236e-05	9.999080e-01	9.788159e-05	9.788158e-05	9.999108e-01	
38	2.250000e-10	8.977152e-05	9.999093e-01	9.240072e-05	9.999049e-01	9.059767e-05	9.999082e-01	9.825634e-05	9.730923e-05	9.087283e-05	9.999081e-01	9.748670e-05	9.748669e-05	9.999109e-01	
39	2.350000e-10	8.972612e-05	9.999093e-01	9.238461e-05	9.999057e-01	9.057298e-05	9.999082e-01	9.806151e-05	9.713357e-05	9.083838e-05	9.999080e-01	9.724510e-05	9.724510e-05	9.999109e-01	
40	2.450000e-10	8.970120e-05	9.999093e-01	9.237382e-05	9.999060e-01	9.055048e-05	9.999082e-01	9.794283e-05	9.702833e-05	9.082337e-05	9.999081e-01	9.709791e-05	9.709791e-05	9.999109e-01	
41	2.550000e-10	8.968526e-05	9.999093e-01	9.237062e-05	9.999063e-01	9.054457e-05	9.999082e-01	9.786882e-05	9.696110e-05	9.080956e-05	9.999081e-01	9.700776e-05	9.700775e-05	9.999109e-01	
42	2.650000e-10	8.967730e-05	9.999093e-01	9.236666e-05	9.999064e-01	9.053445e-05	9.999082e-01	9.782421e-05	9.692200e-05	9.080624e-05	9.999081e-01	9.695293e-05	9.695292e-05	9.999109e-01	
43	2.750000e-10	8.967136e-05	9.999093e-01	9.236686e-05	9.999066e-01	9.053455e-05	9.999082e-01	9.779596e-05	9.689594e-05	9.079969e-05	9.999081e-01	9.691928e-05	9.691927e-05	9.999109e-01	
44	2.850000e-10	8.966911e-05	9.999093e-01	9.236478e-05	9.999066e-01	9.052912e-05	9.999082e-01	9.777932e-05	9.688171e-05	9.080025e-05	9.999081e-01	9.689886e-05	9.689885e-05	9.999109e-01	
45	2.950000e-10	8.966663e-05	9.999093e-01	9.236584e-05	9.999066e-01	9.053089e-05	9.999082e-01	9.776843e-05	9.687135e-05	9.079636e-05	9.999081e-01	9.688630e-05	9.688629e-05	9.999109e-01	
46	3.050000e-10	8.966628e-05	9.999093e-01	9.236429e-05	9.999066e-01	9.052746e-05	9.999082e-01	9.776232e-05	9.686642e-05	9.079810e-05	9.999081e-01	9.687870e-05	9.687869e-05	9.999109e-01	
47	3.150000e-10	8.966502e-05	9.999093e-01	9.236554e-05	9.999067e-01	9.052946e-05	9.999082e-01	9.775804e-05	9.686210e-05	9.079527e-05	9.999081e-01	9.687401e-05	9.687400e-05	9.999109e-01	
48	3.250000e-10	8.966527e-05	9.999093e-01	9.236417e-05	9.999066e-01	9.052700e-05	9.999082e-01	9.775587e-05	9.686059e-05	9.079727e-05	9.999081e-01	9.687117e-05	9.687116e-05	9.999109e-01	
49	3.260000e-10	8.966496e-05	9.999093e-01	9.236480e-05	9.999066e-01	9.052776e-05	9.999082e-01	9.775560e-05	9.686018e-05	9.079623e-05	9.999081e-01	9.687098e-05	9.687097e-05	9.999109e-01	
50	3.280000e-10	8.966485e-05	9.999093e-01	9.236484e-05	9.999066e-01	9.052810e-05	9.999082e-01	9.775520e-05	9.685976e-05	9.079598e-05	9.999081e-01	9.687056e-05	9.687055e-05	9.999109e-01	
51	3.320000e-10	8.966474e-05	9.999093e-01	9.236479e-05	9.999066e-01	9.052767e-05	9.999082e-01	9.775465e-05	9.685931e-05	9.079600e-05	9.999081e-01	9.686990e-05	9.686989e-05	9.999109e-01	
52	3.400000e-10	8.966481e-05	9.999093e-01	9.236481e-05	9.999067e-01	9.052824e-05	9.999082e-01	9.775372e-05	9.685845e-05	9.079612e-05	9.999081e-01	9.686885e-05	9.686884e-05	9.999109e-01	
53	3.493034e-10	8.966979e-05	9.999093e-01	9.236477e-05	9.999071e-01	9.053529e-05	9.999082e-01	9.775307e-05	9.685789e-05	9.080297e-05	9.999081e-01	9.686808e-05	9.686807e-05	9.999109e-01	
54	3.578988e-10	8.965776e-05	9.999093e-01	9.236480e-05	9.999058e-01	9.051389e-05	9.999082e-01	9.775262e-05	9.685746e-05	9.078405e-05	9.999081e-01	9.686759e-05	9.686758e-05	9.999109e-01	
55	3.675866e-10	8.942166e-05	9.999093e-01	9.236472e-05	9.998840e-01	9.017423e-05	9.999082e-01	9.775230e-05	9.685718e-05	9.046928e-05	9.999081e-01	9.686722e-05	9.686722e-05	9.999109e-01	
56	3.775866e-10	9.124442e-05	9.999094e-01	9.236506e-05	1.000066e+00	9.301491e-05	9.999083e-01	9.775243e-05	9.685740e-05	9.304118e-05	9.999081e-01	9.686730e-05	9.686729e-05	9.999109e-01	
57	3.867180e-10	1.064708e-04	9.999096e-01	9.236785e-05	1.001472e+00	1.146247e-04	9.999087e-01	9.775535e-05	9.686092e-05	1.131505e-04	9.999085e-01	9.686991e-05	9.686990e-05	9.999109e-01	
58	3.956419e-10	6.459533e-05	9.999090e-01	9.236130e-05	9.969227e-01	4.052498e-05	9.999073e-01	9.774741e-05	9.685046e-05	4.807411e-05	9.999074e-01	9.686328e-05	9.686327e-05	9.999109e-01	
59	4.045763e-10	-5.759257e-04	9.998988e-01	9.224258e-05	9.376360e-01	-8.924710e-04	9.998897e-01	9.761903e-05	9.669564e-05	-8.141874e-04	9.998926e-01	9.674807e-05	9.674806e-05	9.999109e-01	
60	4.145763e-10	-1.581801e-03	9.998809e-01	9.203585e-05	7.472496e-01	-1.202234e-03	9.998834e-01	9.751423e-05	9.660365e-05	-1.216248e-03	9.998840e-01	9.663538e-05	9.663538e-05	9.999109e-01	
61	4.239710e-10	1.590251e-02	1.000162e+00	9.531640e-05	5.171055e-01	3.066037e-02	1.000497e+00	1.018650e-04	1.019153e-04	2.799051e-02	1.000394e+00	1.005034e-04	1.005034e-04	9.999110e-01	
62	4.325306e-10	9.456529e-02	1.001444e+00	1.102858e-04	3.545678e-01	1.609150e-01	1.002699e+00	1.191224e-04	1.220332e-04	1.503609e-01	1.002351e+00	1.166402e-04	1.166403e-04	9.999112e-01	
63	4.425306e-10	2.860146e-01	1.000781e+00	1.013996e-04	2.333552e-01	4.405603e-01	9.832787e-01	-1.498606e-05	-4.472272e-05	4.227093e-01	9.878520e-01	9.691668e-06	9.691502e-06	9.999111e-01	
64	4.525306e-10	5.181038e-01	9.621016e-01	-3.545778e-04	1.529541e-01	7.040504e-01	8.458878e-01	-9.392369e-04	-1.126490e-03	6.890248e-01	8.715144e-01	-8.635849e-04	-8.635862e-04	9.999054e-01	
65	4.625306e-10	7.142425e-01	8.154492e-01	-1.534606e-03	9.797052e-02	8.576145e-01	5.671095e-01	6.537448e-03	8.139328e-03	8.493461e-01	6.168863e-01	3.549055e-03	3.549062e-03	9.998879e-01	
66	4.725306e-10	8.424947e-01	5.616873e-01	1.223692e-02	6.225159e-02	9.321969e-01	3.048639e-01	8.334034e-02	9.899965e-02	9.279152e-01	3.555694e-01	6.629195e-02	6.629204e-02	9.999879e-01	
67	4.819634e-10	9.128094e-01	3.233373e-01	9.770049e-02	3.976893e-02	9.669550e-01	1.574097e-01	2.628399e-01	2.982605e-01	9.648017e-01	1.946549e-01	2.312642e-01	2.312645e-01	1.000836e+00	
68	4.919634e-10	9.552861e-01	1.598853e-01	2.980361e-01	2.487498e-02	9.845082e-01	7.179183e-02	4.779992e-01	5.169953e-01	9.835841e-01	9.699598e-02	4.504973e-01	4.504976e-01	1.002528e+00	
69	5.019634e-10	9.771362e-01	7.855210e-02	5.262226e-01	1.517936e-02	9.923876e-01	3.030388e-02	6.279426e-01	6.580552e-01	9.917807e-01	4.502911e-02	6.142817e-01	6.142819e-01	9.879915e-01	
70	5.119634e-10	9.885347e-01	3.835040e-02	6.993581e-01	9.385798e-03	9.963678e-01	1.435512e-02	7.243526e-01	7.518823e-01	9.961468e-01	2.176599e-02	7.169629e-01	7.169632e-01	8.902806e-01	
71	5.197895e-10	9.931444e-01	2.229937e-02	7.922840e-01	6.317309e-03	9.978611e-01	8.117034e-03	7.912378e-01	8.157566e-01	9.976756e-01	1.267399e-02	7.841780e-01	7.841783e-01	7.123726e-01	
72	5.276223e-10	9.959925e-01	1.340475e-02	8.631046e-01	4.335469e-03	9.987822e-01	5.453483e-03	8.510328e-01	8.673980e-01	9.987243e-01	8.045798e-03	8.445069e-01	8.445071e-01	4.721893e-01	
73	5.359006e-10	9.976414e-01	8.078905e-03	9.154871e-01	2.854466e-03	9.992608e-01	3.651440e-03	8.973031e-01	9.070448e-01	9.991951e-01	5.359607e-03	8.927089e-01	8.927090e-01	2.494974e-01	
74	5.442169e-10	9.986515e-01	4.975900e-03	9.478370e-01	1.913337e-03	9.995643e-01	2.474554e-03	9.304714e-01	9.366892e-01	9.995553e-01	3.523011e-03	9.277429e-01	9.277430e-01	1.179088e-01	
75	5.526800e-10	9.991686e-01	3.021437e-03	9.687828e-01	1.263470e-03	9.996847e-01	1.812299e-03	9.530868e-01	9.571341e-01	9.996579e-01	2.522545e-03	9.517464e-01	9.517464e-01	5.438222e-02	
76	5.623125e-10	9.995409e-01	1.765156e-03	9.824934e-01	8.049209e-04	9.998040e-01	1.095663e-03	9.704776e-01	9.730497e-01	9.998042e-01	1.511238e-03	9.699560e-01	9.699560e-01	2.194195e-02	
77	5.723125e-10	9.996998e-01	9.907157e-04	9.906668e-01	5.161030e-04	9.998270e-01	8.415730e-04	9.815903e-01	9.832056e-01	9.998157e-01	1.098205e-03	9.814927e-01	9.814927e-01	8.634572e-03	
78	5.823125e-10	9.998148e-01	6.018482e-04	9.948780e-01	3.405618e-04	9.998812e-01	4.427043e-04	9.886978e-01	9.897091e-01	9.998824e-01	5.934637e-04	9.887428e-01	9.887428e-01	3.477891e-03	
79	5.923125e-10	9.998458e-01	3.521855e-04	9.973039e-01	2.442407e-04	9.998721e-01	4.287760e-04	9.929311e-01	9.935665e-01	9.998676e-01	5.161343e-04	9.930253e-01	9.930253e-01	1.477950e-03	
80	6.023125e-10	9.998866e-01	2.474652e-04	9.984716e-01	1.770502e-04	9.999059e-01	1.854846e-04	9.956731e-01	9.960667e-01	9.999060e-01	2.434940e-04	9.957628e-01	9.957628e-01	6.650519e-04	
81	6.123125e-10	9.998874e-01	1.611138e-04	9.991928e-01	1.493843e-04	9.998887e-01	2.604074e-04	9.972591e-01	9.975048e-01	9.998875e-01	2.866357e-04	9.973324e-01	9.973324e-01	3.532508e-04	
82	6.223125e-10	9.999056e-01	1.405649e-04	9.994966e-01	1.200012e-04	9.999140e-01	9.048011e-05	9.983176e-01	9.984698e-01	9.999132e-01	1.163193e-04	9.983741e-01	9.983741e-01	1.966702e-04	
83	6.323125e-10	9.999003e-01	1.057824e-04	9.997184e-01	1.164208e-04	9.998955e-01	1.900684e-04	9.989009e-01	9.989941e-01	9.998961e-01	1.943486e-04	9.989394e-01	9.989394e-01	1.523688e-04	
84	6.423125e-10	9.999103e-01	1.082431e-04	9.997875e-01	1.003040e-04	9.999164e-01	5.923894e-05	9.993139e-01	9.993734e-01	9.999147e-01	7.377211e-05	9.993432e-01	9.993432e-01	1.075926e-04	
85	6.523125e-10	9.999048e-01	9.068191e-05	9.998610e-01	1.048967e-04	9.998987e-01	1.582442e-04	9.995222e-01	9.995564e-01	9.999002e-01	1.548614e-04	9.995396e-01	9.995396e-01	1.084745e-04	
86	6.623125e-10	9.999112e-01	9.807317e-05	9.998708e-01	9.365131e-05	9.999166e-01	5.213927e-05	9.996874e-01	9.997117e-01	9.999144e-01	6.241581e-05	9.997017e-01	9.997017e-01	8.876656e-05	
87	6.723125e-10	9.999066e-01	8.715013e-05	9.998981e-01	1.007509e-04	9.999005e-01	1.416908e-04	9.997573e-01	9.997690e-01	9.999025e-01	1.359264e-04	9.997646e-01	9.997646e-01	9.614156e-05	
88	6.823125e-10	9.999110e-01	9.448073e-05	9.998953e-01	9.153824e-05	9.999161e-01	5.368373e-05	9.998266e-01	9.998376e-01	9.999136e-01	6.204199e-05	9.998337e-01	9.998337e-01	8.503337e-05	
89	6.923125e-10	9.999076e-01	8.678301e-05	9.999069e-01	9.913784e-05	9.999016e-01	1.315031e-04	9.998466e-01	9.998498e-01	9.999039e-01	1.253326e-04	9.998494e-01	9.998494e-01	9.166771e-05	
90	7.023125e-10	9.999107e-01	9.291051e-05	9.999030e-01	9.099665e-05	9.999154e-01	5.793116e-05	9.998780e-01	9.998839e-01	9.999128e-01	6.514074e-05	9.998818e-01	9.998818e-01	8.481125e-05	
91	7.123125e-10	9.999081e-01	8.717783e-05	9.999085e-01	9.839887e-05	9.999026e-01	1.242744e-04	9.998808e-01	9.998810e-01	9.999049e-01	1.184319e-04	9.998819e-01	9.998819e-01	8.965122e-05	
92	7.223125e-10	9.999103e-01	9.203208e-05	9.999058e-01	9.098895e-05	9.999147e-01	6.266383e-05	9.998967e-01	9.999006e-01	9.999121e-01	6.899122e-05	9.998989e-01	9.998989e-01	8.529848e-05	
93	7.323125e-10	9.999084e-01	8.767750e-05	9.999085e-01	9.797269e-05	9.999033e-01	1.186685e-04	9.998942e-01	9.998933e-01	9.999057e-01	1.134057e-04	9.998946e-01	9.998946e-01	8.858972e-05	
94	7.423125e-10	9.999101e-01	9.144530e-05	9.999069e-01	9.115198e-05	9.999141e-01	6.709995e-05	9.999033e-01	9.999062e-01	9.999115e-01	7.266191e-05	9.999047e-01	9.999047e-01	8.580371e-05	
95	7.523125e-10	9.999087e-01	8.811850e-05	9.999082e-01	9.766853e-05	9.999040e-01	1.141216e-04	9.998996e-01	9.998984e-01	9.999063e-01	1.094990e-04	9.998998e-01	9.998998e-01	8.797613e-05	
96	7.623125e-10	9.999099e-01	9.101724e-05	9.999073e-01	9.135829e-05	9.999135e-01	7.100596e-05	9.999054e-01	9.999079e-01	9.999110e-01	7.587969e-05	9.999065e-01	9.999065e-01	8.618666e-05	
97	7.723125e-10	9.999088e-01	8.847411e-05	9.999080e-01	9.742180e-05	9.999046e-01	1.103611e-04	9.999019e-01	9.999008e-01	9.999067e-01	1.063617e-04	9.999021e-01	9.999021e-01	8.760392e-05	
98	7.823125e-10	9.999098e-01	9.069402e-05	9.999076e-01	9.156393e-05	9.999129e-01	7.435322e-05	9.999060e-01	9.999081e-01	9.999106e-01	7.860710e-05	9.999068e-01	9.999068e-01	8.644971e-05	
99	7.923125e-10	9.999089e-01	8.875229e-05	9.999079e-01	9.720991e-05	9.999051e-01	1.072279e-04	9.999030e-01	9.999020e-01	9.999071e-01	1.038040e-04	9.999032e-01	9.999032e-01	8.737260e-05	
100	8.023125e-10	9.999097e-01	9.044708e-05	9.999077e-01	9.175468e-05	9.999124e-01	7.718492e-05	9.999060e-01	9.999079e-01	9.999102e-01	8.088489e-05	9.999067e-01	9.999067e-01	8.662332e-05	
101	8.123125e-10	9.999090e-01	8.896741e-05	9.999078e-01	9.702399e-05	9.999055e-01	1.046112e-04	9.999035e-01	9.999028e-01	9.999074e-01	1.017051e-04	9.999039e-01	9.999039e-01	8.722687e-05	
102	8.223125e-10	9.999096e-01	9.025778e-05	9.999077e-01	9.192693e-05	9.999120e-01	7.956486e-05	9.999059e-01	9.999075e-01	9.999100e-01	8.277425e-05	9.999065e-01	9.999065e-01	8.673613e-05	
103	8.323125e-10	9.999091e-01	8.913298e-05	9.999078e-01	9.685966e-05	9.999059e-01	1.024254e-04	9.999039e-01	9.999033e-01	9.999076e-01	9.997809e-05	9.999043e-01	9.999043e-01	8.713410e-05	
104	8.423125e-10	9.999096e-01	9.011259e-05	9.999078e-01	9.208086e-05	9.999117e-01	8.155809e-05	9.999057e-01	9.999072e-01	9.999097e-01	8.433637e-05	9.999062e-01	9.999062e-01	8.680925e-05	
105	8.523125e-10	9.999091e-01	8.926014e-05	9.999078e-01	9.671398e-05	9.999063e-01	1.006002e-04	9.999041e-01	9.999036e-01	9.999078e-01	9.855540e-05	9.999045e-01	9.999045e-01	8.707439e-05	
106	8.623125e-10	9.999095e-01	9.000124e-05	9.999078e-01	9.221795e-05	9.999113e-01	8.322411e-05	9.999055e-01	9.999069e-01	9.999096e-01	8.562590e-05	9.999061e-01	9.999061e-01	8.685689e-05	
107	8.723125e-10	9.999092e-01	8.935767e-05	9.999078e-01	9.658458e-05	9.999066e-01	9.907684e-05	9.999043e-01	9.999039e-01	9.999080e-01	9.738296e-05	9.999047e-01	9.999047e-01	8.703545e-05	
108	8.823125e-10	9.999095e-01	8.991590e-05	9.999077e-01	9.234001e-05	9.999110e-01	8.461496e-05	9.999054e-01	9.999067e-01	9.999094e-01	8.668959e-05	9.999059e-01	9.999059e-01	8.688830e-05	
109	8.923125e-10	9.999092e-01	8.943243e-05	9.999078e-01	9.646940e-05	9.999069e-01	9.780615e-05	9.999044e-01	9.999042e-01	9.999081e-01	9.641661e-05	9.999049e-01	9.999049e-01	8.700966e-05	
110	9.023125e-10	9.999095e-01	8.985053e-05	9.999077e-01	9.244885e-05	9.999108e-01	8.577517e-05	9.999053e-01	9.999065e-01	9.999093e-01	8.756669e-05	9.999058e-01	9.999058e-01	8.690933e-05	
111	9.123125e-10	9.999092e-01	8.948968e-05	9.999078e-01	9.636661e-05	9.999071e-01	9.674666e-05	9.999045e-01	9.999044e-01	9.999082e-01	9.562007e-05	9.999050e-01	9.999050e-01	8.699225e-05	
112	9.223125e-10	9.999095e-01	8.980049e-05	9.999077e-01	9.254614e-05	9.999105e-01	8.674246e-05	9.999052e-01	9.999063e-01	9.999092e-01	8.828981e-05	9.999057e-01	9.999057e-01	8.692368e-05	
113	9.323125e-10	9.999092e-01	8.953350e-05	9.999078e-01	9.627461e-05	9.999073e-01	9.586361e-05	9.999045e-01	9.999045e-01	9.999083e-01	9.496345e-05	9.999051e-01	9.999051e-01	8.698026e-05	
114	9.423125e-10	9.999094e-01	8.976221e-05	9.999077e-01	9.263338e-05	9.999103e-01	8.754858e-05	9.999052e-01	9.999061e-01	9.999091e-01	8.888598e-05	9.999056e-01	9.999056e-01	8.693367e-05	
115	9.523125e-10	9.999092e-01	8.956700e-05	9.999079e-01	9.619199e-05	9.999075e-01	9.512784e-05	9.999046e-01	9.999046e-01	9.999084e-01	9.442214e-05	9.999051e-01	9.999051e-01	8.697183e-05	
116	9.623125e-10	9.999094e-01	8.973297e-05	9.999077e-01	9.271188e-05	9.999102e-01	8.822017e-05	9.999051e-01	9.999060e-01	9.999090e-01	8.937750e-05	9.999056e-01	9.999056e-01	8.694079e-05	
117	9.723125e-10	9.999092e-01	8.959260e-05	9.999079e-01	9.611750e-05	9.999077e-01	9.451499e-05	9.999046e-01	9.999047e-01	9.999084e-01	9.397584e-05	9.999052e-01	9.999052e-01	8.696578e-05	
118	9.823125e-10	9.999094e-01	8.971065e-05	9.999077e-01	9.278279e-05	9.999100e-01	8.877949e-05	9.999051e-01	9.999059e-01	9.999090e-01	8.978279e-05	9.999055e-01	9.999055e-01	8.694595e-05	
119	9.923125e-10	9.999092e-01	8.961212e-05	9.999079e-01	9.605009e-05	9.999078e-01	9.400465e-05	9.999047e-01	9.999048e-01	9.999085e-01	9.360783e-05	9.999052e-01	9.999052e-01	8.696134e-05	
120	1.002313e-09	9.999094e-01	8.969364e-05	9.999077e-01	9.284711e-05	9.999099e-01	8.924519e-05	9.999051e-01	9.999059e-01	9.999089e-01	9.011702e-05	9.999055e-01	9.999055e-01	8.694978e-05	
121	1.012313e-09	9.999093e-01	8.962699e-05	9.999079e-01	9.598882e-05	9.999079e-01	9.357981e-05	9.999047e-01	9.999049e-01	9.999085e-01	9.330432e-05	9.999052e-01	9.999052e-01	8.695804e-05	
122	1.022313e-09	9.999094e-01	8.968071e-05	9.999077e-01	9.290569e-05	9.999097e-01	8.963282e-05	9.999050e-01	9.999058e-01	9.999089e-01	9.039270e-05	9.999055e-01	9.999055e-01	8.695266e-05	
123	1.032313e-09	9.999093e-01	8.963829e-05	9.999079e-01	9.593290e-05	9.999081e-01	9.322624e-05	9.999047e-01	9.999050e-01	9.999086e-01	9.305394e-05	9.999053e-01	9.999053e-01	8.695554e-05	
124	1.042313e-09	9.999094e-01	8.967090e-05	9.999077e-01	9.295928e-05	9.999096e-01	8.995538e-05	9.999050e-01	9.999057e-01	9.999089e-01	9.062014e-05	9.999054e-01	9.999054e-01	8.695486e-05	
125	1.052313e-09	9.999093e-01	8.964686e-05	9.999079e-01	9.588164e-05	9.999082e-01	9.293208e-05	9.999047e-01	9.999050e-01	9.999086e-01	9.284736e-05	9.999053e-01	9.999053e-01	8.695363e-05	
126	1.062313e-09	9.999094e-01	8.966348e-05	9.999077e-01	9.300851e-05	9.999095e-01	9.022369e-05	9.999050e-01	9.999057e-01	9.999089e-01	9.080784e-05	9.999054e-01	9.999054e-01	8.695656e-05	
127	1.072313e-09	9.999093e-01	8.965333e-05	9.999079e-01	9.583444e-05	9.999082e-01	9.268743e-05	9.999048e-01	9.999050e-01	9.999086e-01	9.267684e-05	9.999053e-01	9.999053e-01	8.695216e-05	
128	1.082313e-09	9.999094e-01	8.965789e-05	9.999077e-01	9.305394e-05	9.999095e-01	9.044680e-05	9.999050e-01	9.999057e-01	9.999088e-01	9.096280e-05	9.999054e-01	9.999054e-01	8.695787e-05	
129	1.092313e-09	9.999093e-01	8.965820e-05	9.999079e-01	9.579079e-05	9.999083e-01	9.248404e-05	9.999048e-01	9.999051e-01	9.999086e-01	9.253604e-05	9.999053e-01	9.999053e-01	8.695102e-05	
130	1.102313e-09	9.999094e-01	8.965370e-05	9.999077e-01	9.309605e-05	9.999094e-01	9.063224e-05	9.999050e-01	9.999056e-01	9.999088e-01	9.109078e-05	9.999054e-01	9.999054e-01	8.695890e-05	
131	1.112313e-09	9.999093e-01	8.966184e-05	9.999079e-01	9.575026e-05	9.999084e-01	9.231503e-05	9.999048e-01	9.999051e-01	9.999087e-01	9.241973e-05	9.999053e-01	9.999053e-01	8.695013e-05	
132	1.122313e-09	9.999094e-01	8.965058e-05	9.999077e-01	9.313524e-05	9.999093e-01	9.078632e-05	9.999050e-01	9.999056e-01	9.999088e-01	9.119654e-05	9.999054e-01	9.999054e-01	8.695970e-05	
133	1.132313e-09	9.999093e-01	8.966455e-05	9.999079e-01	9.571245e-05	9.999085e-01	9.217464e-05	9.999048e-01	9.999051e-01	9.999087e-01	9.232359e-05	9.999053e-01	9.999053e-01	8.694945e-05	
134	1.142313e-09	9.999094e-01	8.964828e-05	9.999077e-01	9.317187e-05	9.999093e-01	9.091426e-05	9.999050e-01	9.999056e-01	9.999088e-01	9.128398e-05	9.999054e-01	9.999054e-01	8.696032e-05	
135	1.152313e-09	9.999093e-01	8.966654e-05	9.999079e-01	9.567704e-05	9.999085e-01	9.205809e-05	9.999048e-01	9.999051e-01	9.999087e-01	9.224408e-05	9.999053e-01	9.999053e-01	8.694893e-05	
136	1.162313e-09	9.999094e-01	8.964660e-05	9.999077e-01	9.320625e-05	9.999092e-01	9.102044e-05	9.999050e-01	9.999056e-01	9.999088e-01	9.135633e-05	9.999054e-01	9.999054e-01	8.696080e-05	
137	1.172313e-09	9.999093e-01	8.966799e-05	9.999079e-01	9.564374e-05	9.999086e-01	9.196140e-05	9.999048e-01	9.999052e-01	9.999087e-01	9.217827e-05	9.999053e-01	9.999053e-01	8.694854e-05	
138	1.182313e-09	9.999094e-01	8.964540e-05	9.999077e-01	9.323864e-05	9.999092e-01	9.110851e-05	9.999049e-01	9.999055e-01	9.999088e-01	9.141624e-05	9.999054e-01	9.999054e-01	8.696117e-05	
139	1.192313e-09	9.999093e-01	8.966903e-05	9.999079e-01	9.561231e-05	9.999086e-01	9.188124e-05	9.999048e-01	9.999052e-01	9.999087e-01	9.212374e-05	9.999053e-01	9.999053e-01	8.694824e-05	
140	1.202313e-09	9.999094e-01	8.964455e-05	9.999077e-01	9.326928e-05	9.999091e-01	9.118150e-05	9.999049e-01	9.999055e-01	9.999088e-01	9.146590e-05	9.999054e-01	9.999054e-01	8.696145e-05	
141	1.212313e-09	9.999093e-01	8.966975e-05	9.999079e-01	9.558253e-05	9.999086e-01	9.181482e-05	9.999048e-01	9.999052e-01	9.999087e-01	9.207852e-05	9.999053e-01	9.999053e-01	8.694803e-05	
142	1.222313e-09	9.999094e-01	8.964398e-05	9.999077e-01	9.329835e-05	9.999091e-01	9.124195e-05	9.999049e-01	9.999055e-01	9.999088e-01	9.150712e-05	9.999054e-01	9.999054e-01	8.696165e-05	
143	1.232313e-09	9.999093e-01	8.967024e-05	9.999079e-01	9.555422e-05	9.999087e-01	9.175985e-05	9.999048e-01	9.999052e-01	9.999087e-01	9.204097e-05	9.999053e-01	9.999053e-01	8.694788e-05	
144	1.242313e-09	9.999094e-01	8.964361e-05	9.999077e-01	9.332604e-05	9.999091e-01	9.129196e-05	9.999049e-01	9.999055e-01	9.999087e-01	9.154137e-05	9.999054e-01	9.999054e-01	8.696179e-05	
145	1.252313e-09	9.999093e-01	8.967055e-05	9.999079e-01	9.552723e-05	9.999087e-01	9.171439e-05	9.999048e-01	9.999052e-01	9.999087e-01	9.200973e-05	9.999053e-01	9.999053e-01	8.694779e-05	
146	1.262313e-09	9.999094e-01	8.964339e-05	9.999077e-01	9.335248e-05	9.999090e-01	9.133329e-05	9.999049e-01	9.999055e-01	9.999087e-01	9.156988e-05	9.999054e-01	9.999054e-01	8.696189e-05	
147	1.272313e-09	9.999093e-01	8.967073e-05	9.999079e-01	9.550140e-05	9.999087e-01	9.167685e-05	9.999048e-01	9.999052e-01	9.999087e-01	9.198371e-05	9.999053e-01	9.999053e-01	8.694775e-05	
148	1.282313e-09	9.999094e-01	8.964329e-05	9.999077e-01	9.337782e-05	9.999090e-01	9.136741e-05	9.999049e-01	9.999055e-01	9.999087e-01	9.159366e-05	9.999054e-01	9.999054e-01	8.696194e-05	
149	1.292313e-09	9.999093e-01	8.967080e-05	9.999079e-01	9.547662e-05	9.999087e-01	9.164587e-05	9.999048e-01	9.999052e-01	9.999087e-01	9.196199e-05	9.999053e-01	9.999053e-01	8.694773e-05	
150	1.302313e-09	9.999094e-01	8.964327e-05	9.999077e-01	9.340216e-05	9.999090e-01	9.139554e-05	9.999049e-01	9.999055e-01	9.999087e-01	9.161354e-05	9.999054e-01	9.999054e-01	8.696196e-05	
151	1.312313e-09	9.999093e-01	8.967081e-05	9.999079e-01	9.545279e-05	9.999088e-01	9.162036e-05	9.999048e-01	9.999052e-01	9.999087e-01	9.194381e-05	9.999053e-01	9.999053e-01	8.694775e-05	
152	1.322313e-09	9.999094e-01	8.964331e-05	9.999077e-01	9.342560e-05	9.999090e-01	9.141870e-05	9.999049e-01	9.999055e-01	9.999087e-01	9.163020e-05	9.999054e-01	9.999054e-01	8.696195e-05	
153	1.332313e-09	9.999093e-01	8.967076e-05	9.999079e-01	9.542981e-05	9.999088e-01	9.159937e-05	9.999048e-01	9.999052e-01	9.999087e-01	9.192855e-05	9.999053e-01	9.999053e-01	8.694779e-05	
154	1.342313e-09	9.999094e-01	8.964340e-05	9.999077e-01	9.344822e-05	9.999090e-01	9.143772e-05	9.999049e-01	9.999055e-01	9.999087e-01	9.164420e-05	9.999054e-01	9.999054e-01	8.696193e-05	
155	1.352313e-09	9.999093e-01	8.967068e-05	9.999079e-01	9.540760e-05	9.999088e-01	9.158215e-05	9.999048e-01	9.999052e-01	9.999087e-01	9.191571e-05	9.999053e-01	9.999053e-01	8.694785e-05	
156	1.362313e-09	9.999094e-01	8.964351e-05	9.999077e-01	9.347011e-05	9.999089e-01	9.145333e-05	9.999049e-01	9.999055e-01	9.999087e-01	9.165601e-05	9.999054e-01	9.999054e-01	8.696188e-05	
157	1.372313e-09	9.999093e-01	8.967057e-05	9.999079e-01	9.538610e-05	9.999088e-01	9.156804e-05	9.999048e-01	9.999052e-01	9.999087e-01	9.190486e-05	9.999053e-01	9.999053e-01	8.694793e-05	
158	1.382313e-09	9.999094e-01	8.964365e-05	9.999077e-01	9.349132e-05	9.999089e-01	9.146610e-05	9.999049e-01	9.999055e-01	9.999087e-01	9.166601e-05	9.999054e-01	9.999054e-01	8.696182e-05	
159	1.392313e-09	9.999093e-01	8.967045e-05	9.999078e-01	9.536524e-05	9.999088e-01	9.155651e-05	9.999048e-01	9.999052e-01	9.999087e-01	9.189566e-05	9.999053e-01	9.999053e-01	8.694802e-05	
160	1.402313e-09	9.999094e-01	8.964380e-05	9.999077e-01	9.351191e-05	9.999089e-01	9.147652e-05	9.999049e-01	9.999055e-01	9.999087e-01	9.167451e-05	9.999054e-01	9.999054e-01	8.696175e-05	
161	1.412313e-09	9.999093e-01	8.967031e-05	9.999078e-01	9.534497e-05	9.999088e-01	9.154711e-05	9.999048e-01	9.999052e-01	9.999087e-01	9.188781e-05	9.999053e-01	9.999053e-01	8.694812e-05	
162	1.422313e-09	9.999094e-01	8.964395e-05	9.999077e-01	9.353194e-05	9.999089e-01	9.148501e-05	9.999049e-01	9.999055e-01	9.999087e-01	9.168177e-05	9.999054e-01	9.999054e-01	8.696167e-05	
163	1.432313e-09	9.999093e-01	8.967017e-05	9.999078e-01	9.532525e-05	9.999088e-01	9.153948e-05	9.999048e-01	9.999052e-01	9.999087e-01	9.188109e-05	9.999053e-01	9.999053e-01	8.694822e-05	
164	1.442313e-09	9.999094e-01	8.964411e-05	9.999077e-01	9.355144e-05	9.999089e-01	9.149189e-05	9.999049e-01	9.999055e-01	9.999087e-01	9.168802e-05	9.999054e-01	9.999054e-01	8.696158e-05	
165	1.452313e-09	9.999093e-01	8.967003e-05	9.999078e-01	9.530604e-05	9.999088e-01	9.153330e-05	9.999048e-01	9.999053e-01	9.999087e-01	9.187530e-05	9.999053e-01	9.999053e-01	8.694834e-05	
166	1.462313e-09	9.999094e-01	8.964427e-05	9.999077e-01	9.357045e-05	9.999089e-01	9.149744e-05	9.999049e-01	9.999055e-01	9.999087e-01	9.169341e-05	9.999054e-01	9.999054e-01	8.696148e-05	
167	1.472313e-09	9.999093e-01	8.966988e-05	9.999078e-01	9.528729e-05	9.999089e-01	9.152832e-05	9.999048e-01	9.999053e-01	9.999087e-01	9.187028e-05	9.999053e-01	9.999053e-01	8.694846e-05	
168	1.482313e-09	9.999094e-01	8.964443e-05	9.999077e-01	9.358901e-05	9.999089e-01	9.150192e-05	9.999049e-01	9.999055e-01	9.999087e-01	9.169811e-05	9.999054e-01	9.999054e-01	8.696138e-05	
169	1.492313e-09	9.999093e-01	8.966974e-05	9.999078e-01	9.526898e-05	9.999089e-01	9.152433e-05	9.999048e-01	9.999053e-01	9.999087e-01	9.186590e-05	9.999053e-01	9.999053e-01	8.694858e-05	
[...]
41	2.550000e-10	9.999109e-01	9.999109e-01	9.999109e-01	9.999109e-01	9.999109e-01	9.999109e-01	9.999109e-01	
42	2.650000e-10	9.999109e-01	9.999109e-01	9.999109e-01	9.999109e-01	9.999109e-01	9.999109e-01	9.999109e-01	
43	2.750000e-10	9.999109e-01	9.999109e-01	9.999109e-01	9.999109e-01	9.999109e-01	9.999109e-01	9.999109e-01	
44	2.850000e-10	9.999109e-01	9.999109e-01	9.999109e-01	9.999109e-01	9.999109e-01	9.999109e-01	9.999109e-01	
45	2.950000e-10	9.999109e-01	9.999109e-01	9.999109e-01	9.999109e-01	9.999109e-01	9.999109e-01	9.999109e-01	
46	3.050000e-10	9.999109e-01	9.999109e-01	9.999109e-01	9.999109e-01	9.999109e-01	9.999109e-01	9.999109e-01	
47	3.150000e-10	9.999109e-01	9.999109e-01	9.999109e-01	9.999109e-01	9.999109e-01	9.999109e-01	9.999109e-01	
48	3.250000e-10	9.999109e-01	9.999109e-01	9.999109e-01	9.999109e-01	9.999109e-01	9.999109e-01	9.999109e-01	
49	3.260000e-10	9.999109e-01	9.999109e-01	9.999109e-01	9.999109e-01	9.999109e-01	9.999109e-01	9.999109e-01	
50	3.280000e-10	9.999109e-01	9.999109e-01	9.999109e-01	9.999109e-01	9.999109e-01	9.999109e-01	9.999109e-01	
51	3.320000e-10	9.999109e-01	9.999109e-01	9.999109e-01	9.999109e-01	9.999109e-01	9.999109e-01	9.999109e-01	
52	3.400000e-10	9.999109e-01	9.999109e-01	9.999109e-01	9.999109e-01	9.999109e-01	9.999109e-01	9.999109e-01	
53	3.493034e-10	9.999109e-01	9.999109e-01	9.999109e-01	9.999109e-01	9.999109e-01	9.999109e-01	9.999109e-01	
54	3.578988e-10	9.999109e-01	9.999109e-01	9.999109e-01	9.999109e-01	9.999109e-01	9.999109e-01	9.999109e-01	
55	3.675866e-10	9.999109e-01	9.999109e-01	9.999109e-01	9.999109e-01	9.999109e-01	9.999109e-01	9.999109e-01	
56	3.775866e-10	9.999109e-01	9.999109e-01	9.999109e-01	9.999109e-01	9.999109e-01	9.999109e-01	9.999109e-01	
57	3.867180e-10	9.999109e-01	9.999109e-01	9.999109e-01	9.999109e-01	9.999109e-01	9.999109e-01	9.999109e-01	
58	3.956419e-10	9.999109e-01	9.999109e-01	9.999109e-01	9.999109e-01	9.999109e-01	9.999109e-01	9.999109e-01	
59	4.045763e-10	9.999109e-01	9.999109e-01	9.999109e-01	9.999109e-01	9.999109e-01	9.999109e-01	9.999109e-01	
60	4.145763e-10	9.999109e-01	9.999109e-01	9.999109e-01	9.999109e-01	9.999109e-01	9.999109e-01	9.999109e-01	
61	4.239710e-10	9.999109e-01	9.999109e-01	9.999110e-01	9.999110e-01	9.999110e-01	9.999110e-01	9.999110e-01	
62	4.325306e-10	9.999111e-01	9.999111e-01	9.999114e-01	9.999112e-01	9.999112e-01	9.999114e-01	9.999114e-01	
63	4.425306e-10	9.999111e-01	9.999111e-01	9.999085e-01	9.999093e-01	9.999093e-01	9.999089e-01	9.999089e-01	
64	4.525306e-10	9.999059e-01	9.999059e-01	9.998885e-01	9.998948e-01	9.998948e-01	9.998891e-01	9.998891e-01	
65	4.625306e-10	9.998895e-01	9.998895e-01	1.000051e+00	1.000006e+00	1.000006e+00	9.999918e-01	9.999918e-01	
66	4.725306e-10	1.000040e+00	1.000040e+00	1.001707e+00	1.001184e+00	1.001184e+00	1.001437e+00	1.001437e+00	
67	4.819634e-10	1.001073e+00	1.001073e+00	1.002133e+00	1.000728e+00	1.000728e+00	1.003107e+00	1.003107e+00	
68	4.919634e-10	1.000640e+00	1.000640e+00	9.586973e-01	9.636189e-01	9.636189e-01	9.685615e-01	9.685614e-01	
69	5.019634e-10	9.672631e-01	9.672631e-01	7.795867e-01	8.198252e-01	8.198252e-01	8.006902e-01	8.006900e-01	
70	5.119634e-10	8.308356e-01	8.308356e-01	4.611192e-01	5.659120e-01	5.659120e-01	4.781413e-01	4.781411e-01	
71	5.197895e-10	6.340381e-01	6.340381e-01	2.221476e-01	3.627265e-01	3.627265e-01	2.259675e-01	2.259675e-01	
72	5.276223e-10	4.174574e-01	4.174574e-01	8.626790e-02	2.191085e-01	2.191085e-01	8.200502e-02	8.200509e-02	
73	5.359006e-10	2.438057e-01	2.438057e-01	3.025389e-02	1.271837e-01	1.271837e-01	2.630394e-02	2.630401e-02	
74	5.442169e-10	1.384868e-01	1.384868e-01	1.071644e-02	7.280972e-02	7.280972e-02	8.828739e-03	8.828770e-03	
75	5.526800e-10	7.701136e-02	7.701136e-02	4.130445e-03	4.128518e-02	4.128518e-02	3.326402e-03	3.326415e-03	
76	5.623125e-10	3.898453e-02	3.898453e-02	1.606260e-03	2.147482e-02	2.147482e-02	1.377725e-03	1.377727e-03	
77	5.723125e-10	1.918242e-02	1.918242e-02	7.923039e-04	1.093017e-02	1.093017e-02	7.134793e-04	7.134804e-04	
78	5.823125e-10	9.419992e-03	9.419992e-03	4.566778e-04	5.597727e-03	5.597727e-03	4.392484e-04	4.392484e-04	
79	5.923125e-10	4.671426e-03	4.671426e-03	3.080056e-04	2.895379e-03	2.895379e-03	2.933888e-04	2.933889e-04	
80	6.023125e-10	2.322610e-03	2.322610e-03	2.157799e-04	1.534335e-03	1.534335e-03	2.118872e-04	2.118871e-04	
81	6.123125e-10	1.190855e-03	1.190855e-03	1.682212e-04	8.283981e-04	8.283981e-04	1.621246e-04	1.621247e-04	
82	6.223125e-10	6.231606e-04	6.231606e-04	1.347837e-04	4.790117e-04	4.790117e-04	1.329903e-04	1.329903e-04	
83	6.323125e-10	3.544537e-04	3.544537e-04	1.175739e-04	2.873820e-04	2.873820e-04	1.147241e-04	1.147242e-04	
84	6.423125e-10	2.156150e-04	2.156150e-04	1.048568e-04	1.979525e-04	1.979525e-04	1.040742e-04	1.040742e-04	
85	6.523125e-10	1.523994e-04	1.523994e-04	9.852257e-05	1.423869e-04	1.423869e-04	9.722087e-05	9.722089e-05	
86	6.623125e-10	1.177346e-04	1.177346e-04	9.366477e-05	1.203301e-04	1.203301e-04	9.336575e-05	9.336574e-05	
87	6.723125e-10	1.031979e-04	1.031979e-04	9.131513e-05	1.024663e-04	1.024663e-04	9.072847e-05	9.072848e-05	
88	6.823125e-10	9.424441e-05	9.424441e-05	8.948019e-05	9.780574e-05	9.780574e-05	8.938288e-05	8.938287e-05	
89	6.923125e-10	9.107246e-05	9.107246e-05	8.858676e-05	9.120546e-05	9.120546e-05	8.832188e-05	8.832189e-05	
90	7.023125e-10	8.864416e-05	8.864416e-05	8.791782e-05	9.083470e-05	9.083470e-05	8.789443e-05	8.789443e-05	
91	7.123125e-10	8.802808e-05	8.802808e-05	8.755391e-05	8.799696e-05	8.799696e-05	8.743317e-05	8.743318e-05	
92	7.223125e-10	8.733206e-05	8.733206e-05	8.733452e-05	8.849723e-05	8.849723e-05	8.733354e-05	8.733354e-05	
93	7.323125e-10	8.724114e-05	8.724114e-05	8.716560e-05	8.710864e-05	8.710864e-05	8.711059e-05	8.711059e-05	
94	7.423125e-10	8.703666e-05	8.703666e-05	8.711559e-05	8.763653e-05	8.763653e-05	8.711820e-05	8.711820e-05	
95	7.523125e-10	8.702905e-05	8.702905e-05	8.702115e-05	8.689348e-05	8.689348e-05	8.699709e-05	8.699709e-05	
96	7.623125e-10	8.697526e-05	8.697526e-05	8.703178e-05	8.728571e-05	8.728571e-05	8.703218e-05	8.703218e-05	
97	7.723125e-10	8.696923e-05	8.696923e-05	8.696907e-05	8.686674e-05	8.686674e-05	8.696035e-05	8.696035e-05	
98	7.823125e-10	8.696414e-05	8.696414e-05	8.699817e-05	8.712777e-05	8.712777e-05	8.699526e-05	8.699526e-05	
99	7.923125e-10	8.695213e-05	8.695213e-05	8.695182e-05	8.688523e-05	8.688523e-05	8.695117e-05	8.695117e-05	
100	8.023125e-10	8.696214e-05	8.696214e-05	8.698341e-05	8.705021e-05	8.705021e-05	8.697752e-05	8.697752e-05	
101	8.123125e-10	8.694785e-05	8.694785e-05	8.694748e-05	8.690844e-05	8.690844e-05	8.695138e-05	8.695138e-05	
102	8.223125e-10	8.696108e-05	8.696108e-05	8.697590e-05	8.700945e-05	8.700945e-05	8.696772e-05	8.696772e-05	
103	8.323125e-10	8.694757e-05	8.694757e-05	8.694773e-05	8.692676e-05	8.692676e-05	8.695435e-05	8.695435e-05	
104	8.423125e-10	8.695985e-05	8.695985e-05	8.697139e-05	8.698700e-05	8.698700e-05	8.696154e-05	8.696154e-05	
105	8.523125e-10	8.694848e-05	8.694848e-05	8.694942e-05	8.693935e-05	8.693935e-05	8.695773e-05	8.695773e-05	
106	8.623125e-10	8.695858e-05	8.695858e-05	8.696827e-05	8.697426e-05	8.697426e-05	8.695725e-05	8.695725e-05	
107	8.723125e-10	8.694961e-05	8.694961e-05	8.695139e-05	8.694748e-05	8.694748e-05	8.696078e-05	8.696078e-05	
108	8.823125e-10	8.695745e-05	8.695745e-05	8.696591e-05	8.696692e-05	8.696692e-05	8.695411e-05	8.695411e-05	
109	8.923125e-10	8.695063e-05	8.695063e-05	8.695324e-05	8.695254e-05	8.695254e-05	8.696331e-05	8.696331e-05	
110	9.023125e-10	8.695653e-05	8.695653e-05	8.696404e-05	8.696268e-05	8.696268e-05	8.695174e-05	8.695174e-05	
111	9.123125e-10	8.695146e-05	8.695146e-05	8.695486e-05	8.695561e-05	8.695561e-05	8.696534e-05	8.696534e-05	
112	9.223125e-10	8.695583e-05	8.695583e-05	8.696253e-05	8.696025e-05	8.696025e-05	8.694993e-05	8.694993e-05	
113	9.323125e-10	8.695209e-05	8.695209e-05	8.695623e-05	8.695742e-05	8.695742e-05	8.696694e-05	8.696694e-05	
114	9.423125e-10	8.695531e-05	8.695531e-05	8.696129e-05	8.695889e-05	8.695889e-05	8.694855e-05	8.694855e-05	
115	9.523125e-10	8.695257e-05	8.695257e-05	8.695738e-05	8.695846e-05	8.695846e-05	8.696819e-05	8.696819e-05	
116	9.623125e-10	8.695494e-05	8.695494e-05	8.696028e-05	8.695815e-05	8.695815e-05	8.694750e-05	8.694750e-05	
117	9.723125e-10	8.695291e-05	8.695291e-05	8.695833e-05	8.695904e-05	8.695904e-05	8.696915e-05	8.696915e-05	
118	9.823125e-10	8.695469e-05	8.695469e-05	8.695944e-05	8.695778e-05	8.695778e-05	8.694671e-05	8.694671e-05	
119	9.923125e-10	8.695316e-05	8.695316e-05	8.695913e-05	8.695934e-05	8.695934e-05	8.696989e-05	8.696989e-05	
120	1.002313e-09	8.695451e-05	8.695451e-05	8.695875e-05	8.695762e-05	8.695762e-05	8.694612e-05	8.694612e-05	
121	1.012313e-09	8.695334e-05	8.695334e-05	8.695980e-05	8.695948e-05	8.695948e-05	8.697044e-05	8.697044e-05	
122	1.022313e-09	8.695439e-05	8.695439e-05	8.695818e-05	8.695759e-05	8.695759e-05	8.694569e-05	8.694569e-05	
123	1.032313e-09	8.695347e-05	8.695347e-05	8.696036e-05	8.695953e-05	8.695953e-05	8.697085e-05	8.697085e-05	
124	1.042313e-09	8.695432e-05	8.695432e-05	8.695770e-05	8.695762e-05	8.695762e-05	8.694539e-05	8.694539e-05	
125	1.052313e-09	8.695357e-05	8.695357e-05	8.696083e-05	8.695953e-05	8.695953e-05	8.697114e-05	8.697114e-05	
126	1.062313e-09	8.695427e-05	8.695427e-05	8.695731e-05	8.695768e-05	8.695768e-05	8.694520e-05	8.694520e-05	
127	1.072313e-09	8.695364e-05	8.695364e-05	8.696122e-05	8.695950e-05	8.695950e-05	8.697135e-05	8.697135e-05	
128	1.082313e-09	8.695424e-05	8.695424e-05	8.695698e-05	8.695776e-05	8.695776e-05	8.694508e-05	8.694508e-05	
129	1.092313e-09	8.695370e-05	8.695370e-05	8.696156e-05	8.695946e-05	8.695946e-05	8.697148e-05	8.697148e-05	
130	1.102313e-09	8.695422e-05	8.695422e-05	8.695671e-05	8.695784e-05	8.695784e-05	8.694503e-05	8.694503e-05	
131	1.112313e-09	8.695375e-05	8.695375e-05	8.696184e-05	8.695942e-05	8.695942e-05	8.697154e-05	8.697154e-05	
132	1.122313e-09	8.695420e-05	8.695420e-05	8.695648e-05	8.695792e-05	8.695792e-05	8.694504e-05	8.694504e-05	
133	1.132313e-09	8.695379e-05	8.695379e-05	8.696207e-05	8.695938e-05	8.695938e-05	8.697156e-05	8.697156e-05	
134	1.142313e-09	8.695420e-05	8.695420e-05	8.695630e-05	8.695800e-05	8.695800e-05	8.694509e-05	8.694509e-05	
135	1.152313e-09	8.695382e-05	8.695382e-05	8.696227e-05	8.695934e-05	8.695934e-05	8.697154e-05	8.697154e-05	
136	1.162313e-09	8.695420e-05	8.695420e-05	8.695615e-05	8.695807e-05	8.695807e-05	8.694517e-05	8.694517e-05	
137	1.172313e-09	8.695385e-05	8.695385e-05	8.696244e-05	8.695931e-05	8.695931e-05	8.697149e-05	8.697149e-05	
138	1.182313e-09	8.695420e-05	8.695420e-05	8.695602e-05	8.695813e-05	8.695813e-05	8.694528e-05	8.694528e-05	
139	1.192313e-09	8.695387e-05	8.695387e-05	8.696258e-05	8.695928e-05	8.695928e-05	8.697141e-05	8.697141e-05	
140	1.202313e-09	8.695420e-05	8.695420e-05	8.695593e-05	8.695819e-05	8.695819e-05	8.694541e-05	8.694541e-05	
141	1.212313e-09	8.695390e-05	8.695390e-05	8.696269e-05	8.695925e-05	8.695925e-05	8.697131e-05	8.697131e-05	
142	1.222313e-09	8.695420e-05	8.695420e-05	8.695585e-05	8.695825e-05	8.695825e-05	8.694557e-05	8.694557e-05	
143	1.232313e-09	8.695392e-05	8.695392e-05	8.696279e-05	8.695923e-05	8.695923e-05	8.697119e-05	8.697119e-05	
144	1.242313e-09	8.695421e-05	8.695421e-05	8.695580e-05	8.695830e-05	8.695830e-05	8.694573e-05	8.694573e-05	
145	1.252313e-09	8.695394e-05	8.695394e-05	8.696286e-05	8.695921e-05	8.695921e-05	8.697106e-05	8.697106e-05	
146	1.262313e-09	8.695421e-05	8.695421e-05	8.695576e-05	8.695834e-05	8.695834e-05	8.694592e-05	8.694592e-05	
147	1.272313e-09	8.695396e-05	8.695396e-05	8.696292e-05	8.695920e-05	8.695920e-05	8.697091e-05	8.697091e-05	
148	1.282313e-09	8.695422e-05	8.695422e-05	8.695573e-05	8.695839e-05	8.695839e-05	8.694611e-05	8.694611e-05	
149	1.292313e-09	8.695398e-05	8.695398e-05	8.696297e-05	8.695918e-05	8.695918e-05	8.697075e-05	8.697075e-05	
150	1.302313e-09	8.695422e-05	8.695422e-05	8.695572e-05	8.695843e-05	8.695843e-05	8.694631e-05	8.694631e-05	
151	1.312313e-09	8.695400e-05	8.695400e-05	8.696300e-05	8.695917e-05	8.695917e-05	8.697058e-05	8.697058e-05	
152	1.322313e-09	8.695423e-05	8.695423e-05	8.695572e-05	8.695846e-05	8.695846e-05	8.694652e-05	8.694652e-05	
153	1.332313e-09	8.695401e-05	8.695401e-05	8.696303e-05	8.695916e-05	8.695916e-05	8.697041e-05	8.697041e-05	
154	1.342313e-09	8.695423e-05	8.695423e-05	8.695573e-05	8.695849e-05	8.695849e-05	8.694673e-05	8.694673e-05	
155	1.352313e-09	8.695403e-05	8.695403e-05	8.696304e-05	8.695916e-05	8.695916e-05	8.697023e-05	8.697023e-05	
156	1.362313e-09	8.695424e-05	8.695424e-05	8.695574e-05	8.695853e-05	8.695853e-05	8.694695e-05	8.694695e-05	
157	1.372313e-09	8.695404e-05	8.695404e-05	8.696304e-05	8.695915e-05	8.695915e-05	8.697005e-05	8.697004e-05	
158	1.382313e-09	8.695424e-05	8.695424e-05	8.695577e-05	8.695855e-05	8.695855e-05	8.694717e-05	8.694717e-05	
159	1.392313e-09	8.695406e-05	8.695406e-05	8.696304e-05	8.695915e-05	8.695915e-05	8.696986e-05	8.696986e-05	
160	1.402313e-09	8.695425e-05	8.695425e-05	8.695580e-05	8.695858e-05	8.695858e-05	8.694740e-05	8.694740e-05	
161	1.412313e-09	8.695407e-05	8.695407e-05	8.696303e-05	8.695914e-05	8.695914e-05	8.696967e-05	8.696967e-05	
162	1.422313e-09	8.695425e-05	8.695425e-05	8.695584e-05	8.695861e-05	8.695861e-05	8.694762e-05	8.694762e-05	
163	1.432313e-09	8.695409e-05	8.695409e-05	8.696301e-05	8.695914e-05	8.695914e-05	8.696947e-05	8.696947e-05	
164	1.442313e-09	8.695426e-05	8.695426e-05	8.695588e-05	8.695863e-05	8.695863e-05	8.694785e-05	8.694785e-05	
165	1.452313e-09	8.695410e-05	8.695410e-05	8.696299e-05	8.695914e-05	8.695914e-05	8.696928e-05	8.696928e-05	
166	1.462313e-09	8.695426e-05	8.695426e-05	8.695593e-05	8.695865e-05	8.695865e-05	8.694808e-05	8.694808e-05	
167	1.472313e-09	8.695411e-05	8.695411e-05	8.696296e-05	8.695914e-05	8.695914e-05	8.696908e-05	8.696908e-05	
168	1.482313e-09	8.695427e-05	8.695427e-05	8.695598e-05	8.695868e-05	8.695868e-05	8.694831e-05	8.694831e-05	
169	1.492313e-09	8.695412e-05	8.695412e-05	8.696293e-05	8.695914e-05	8.695914e-05	8.696889e-05	8.696889e-05	
170	1.502313e-09	8.695427e-05	8.695427e-05	8.695604e-05	8.695870e-05	8.695870e-05	8.694853e-05	8.694853e-05	
171	1.512313e-09	8.695414e-05	8.695414e-05	8.696290e-05	8.695914e-05	8.695914e-05	8.696869e-05	8.696869e-05	
172	1.522313e-09	8.695428e-05	8.695428e-05	8.695610e-05	8.695872e-05	8.695872e-05	8.694876e-05	8.694876e-05	
173	1.532313e-09	8.695415e-05	8.695415e-05	8.696286e-05	8.695914e-05	8.695914e-05	8.696849e-05	8.696849e-05	
174	1.542313e-09	8.695428e-05	8.695428e-05	8.695616e-05	8.695874e-05	8.695874e-05	8.694899e-05	8.694899e-05	
175	1.552313e-09	8.695416e-05	8.695416e-05	8.696282e-05	8.695914e-05	8.695914e-05	8.696830e-05	8.696830e-05	
176	1.562313e-09	8.695429e-05	8.695429e-05	8.695622e-05	8.695875e-05	8.695875e-05	8.694921e-05	8.694921e-05	
177	1.572313e-09	8.695417e-05	8.695417e-05	8.696278e-05	8.695914e-05	8.695914e-05	8.696811e-05	8.696810e-05	
178	1.582313e-09	8.695429e-05	8.695429e-05	8.695629e-05	8.695877e-05	8.695877e-05	8.694943e-05	8.694943e-05	
179	1.592313e-09	8.695418e-05	8.695418e-05	8.696273e-05	8.695914e-05	8.695914e-05	8.696791e-05	8.696791e-05	
180	1.602313e-09	8.695430e-05	8.695430e-05	8.695635e-05	8.695879e-05	8.695879e-05	8.694965e-05	8.694965e-05	
181	1.612313e-09	8.695419e-05	8.695419e-05	8.696268e-05	8.695914e-05	8.695914e-05	8.696772e-05	8.696772e-05	
182	1.622313e-09	8.695430e-05	8.695430e-05	8.695642e-05	8.695880e-05	8.695880e-05	8.694987e-05	8.694987e-05	
183	1.632313e-09	8.695420e-05	8.695420e-05	8.696263e-05	8.695915e-05	8.695915e-05	8.696753e-05	8.696753e-05	
184	1.642313e-09	8.695431e-05	8.695431e-05	8.695649e-05	8.695882e-05	8.695882e-05	8.695008e-05	8.695008e-05	
185	1.652313e-09	8.695421e-05	8.695421e-05	8.696259e-05	8.695915e-05	8.695915e-05	8.696735e-05	8.696735e-05	
186	1.662313e-09	8.695431e-05	8.695431e-05	8.695656e-05	8.695883e-05	8.695883e-05	8.695029e-05	8.695029e-05	
187	1.672313e-09	8.695422e-05	8.695422e-05	8.696253e-05	8.695915e-05	8.695915e-05	8.696716e-05	8.696716e-05	
188	1.682313e-09	8.695432e-05	8.695432e-05	8.695663e-05	8.695885e-05	8.695885e-05	8.695050e-05	8.695050e-05	
189	1.692313e-09	8.695423e-05	8.695423e-05	8.696248e-05	8.695915e-05	8.695915e-05	8.696698e-05	8.696698e-05	
190	1.702313e-09	8.695432e-05	8.695432e-05	8.695671e-05	8.695886e-05	8.695886e-05	8.695071e-05	8.695071e-05	
191	1.712313e-09	8.695423e-05	8.695423e-05	8.696243e-05	8.695916e-05	8.695916e-05	8.696680e-05	8.696680e-05	
192	1.722313e-09	8.695433e-05	8.695433e-05	8.695678e-05	8.695888e-05	8.695888e-05	8.695092e-05	8.695092e-05	
193	1.732313e-09	8.695424e-05	8.695424e-05	8.696238e-05	8.695916e-05	8.695916e-05	8.696662e-05	8.696662e-05	
194	1.742313e-09	8.695433e-05	8.695433e-05	8.695685e-05	8.695889e-05	8.695889e-05	8.695112e-05	8.695112e-05	
195	1.752313e-09	8.695425e-05	8.695425e-05	8.696232e-05	8.695916e-05	8.695916e-05	8.696644e-05	8.696644e-05	
196	1.762313e-09	8.695434e-05	8.695434e-05	8.695692e-05	8.695890e-05	8.695890e-05	8.695131e-05	8.695131e-05	
197	1.772313e-09	8.695426e-05	8.695426e-05	8.696227e-05	8.695916e-05	8.695916e-05	8.696627e-05	8.696627e-05	
198	1.782313e-09	8.695434e-05	8.695434e-05	8.695699e-05	8.695891e-05	8.695891e-05	8.695151e-05	8.695151e-05	
199	1.792313e-09	8.695427e-05	8.695427e-05	8.696222e-05	8.695917e-05	8.695917e-05	8.696610e-05	8.696610e-05	
200	1.802313e-09	8.695435e-05	8.695435e-05	8.695707e-05	8.695893e-05	8.695893e-05	8.695170e-05	8.695170e-05	
201	1.812313e-09	8.695427e-05	8.695427e-05	8.696216e-05	8.695917e-05	8.695917e-05	8.696593e-05	8.696593e-05	
202	1.822313e-09	8.695435e-05	8.695435e-05	8.695714e-05	8.695894e-05	8.695894e-05	8.695189e-05	8.695189e-05	
203	1.832313e-09	8.695428e-05	8.695428e-05	8.696211e-05	8.695917e-05	8.695917e-05	8.696577e-05	8.696577e-05	
204	1.842313e-09	8.695436e-05	8.695436e-05	8.695721e-05	8.695895e-05	8.695895e-05	8.695207e-05	8.695207e-05	
205	1.852313e-09	8.695429e-05	8.695429e-05	8.696206e-05	8.695918e-05	8.695918e-05	8.696561e-05	8.696561e-05	
206	1.862313e-09	8.695436e-05	8.695436e-05	8.695728e-05	8.695896e-05	8.695896e-05	8.695225e-05	8.695225e-05	
207	1.872313e-09	8.695430e-05	8.695430e-05	8.696201e-05	8.695918e-05	8.695918e-05	8.696545e-05	8.696545e-05	
208	1.882313e-09	8.695437e-05	8.695437e-05	8.695735e-05	8.695897e-05	8.695897e-05	8.695243e-05	8.695243e-05	
209	1.892313e-09	8.695430e-05	8.695430e-05	8.696195e-05	8.695918e-05	8.695918e-05	8.696529e-05	8.696529e-05	
210	1.902313e-09	8.695437e-05	8.695437e-05	8.695742e-05	8.695898e-05	8.695898e-05	8.695261e-05	8.695261e-05	
211	1.912313e-09	8.695431e-05	8.695431e-05	8.696190e-05	8.695919e-05	8.695919e-05	8.696514e-05	8.696514e-05	
212	1.922313e-09	8.695438e-05	8.695438e-05	8.695749e-05	8.695899e-05	8.695899e-05	8.695278e-05	8.695278e-05	
213	1.932313e-09	8.695432e-05	8.695432e-05	8.696185e-05	8.695919e-05	8.695919e-05	8.696499e-05	8.696499e-05	
214	1.942313e-09	8.695438e-05	8.695438e-05	8.695756e-05	8.695900e-05	8.695900e-05	8.695295e-05	8.695295e-05	
215	1.952313e-09	8.695432e-05	8.695432e-05	8.696180e-05	8.695920e-05	8.695920e-05	8.696484e-05	8.696484e-05	
216	1.962313e-09	8.695439e-05	8.695439e-05	8.695763e-05	8.695901e-05	8.695901e-05	8.695311e-05	8.695311e-05	
217	1.972313e-09	8.695433e-05	8.695433e-05	8.696175e-05	8.695920e-05	8.695920e-05	8.696470e-05	8.696470e-05	
218	1.982313e-09	8.695439e-05	8.695439e-05	8.695769e-05	8.695902e-05	8.695902e-05	8.695328e-05	8.695328e-05	
219	1.992313e-09	8.695434e-05	8.695434e-05	8.696170e-05	8.695920e-05	8.695920e-05	8.696456e-05	8.696456e-05	
220	2.000000e-09	8.695442e-05	8.695442e-05	8.695784e-05	8.695906e-05	8.695906e-05	8.695352e-05	8.695352e-05	

CPU time since last call: 0.592 seconds.

Total CPU time: 0.592 seconds.

Total DRAM available = 3034.875000 MB.
DRAM currently available = 2326.207031 MB.
Total ngspice program size = 7.458984 MB.
Resident set size = 3.141602 MB.
Shared ngspice pages = 464.000 kB.
Text (code) pages = 1.378906 MB.
Stack = 0 bytes.
Library pages = 5.625977 MB.

