
Circuit: * spice from s1000s

Doing analysis at TEMP = 75.000000 and TNOM = 27.000000


Initial Transient Solution
--------------------------

Node                                   Voltage
----                                   -------
n0                                         1.2
n1                                         1.2
n4                                           0
n2                                         1.2
n3                                           0
nseg_node_5                                1.2
nseg_node_6                                1.2
gin                                          0
vdd                                        1.2
vdt#branch                                   0
vdd#branch                        -8.37658e-06


No. of Data Rows : 213

                                                                                                              * spice from s1000s
                                                                                                              Transient Analysis  Fri Feb 20 21:56:54  2009
------------------------------------------------------------------------------------------------------------------------------------------------------------------------------------------------------------------------------------------------
Index   time            gin             m.x0.m1#body    m.x0.m1#dbody   m.x0.m1#gate    m.x0.m1#sbody   m.x0.m2#body    m.x0.m2#dbody   m.x0.m2#gate    m.x0.m2#sbody   m.x1.m1#body    m.x1.m1#dbody   m.x1.m1#gate    m.x1.m1#sbody   
------------------------------------------------------------------------------------------------------------------------------------------------------------------------------------------------------------------------------------------------
0	0.000000e+00	0.000000e+00	1.200000e+00	1.200000e+00	1.107109e-05	1.200000e+00	2.695134e-09	1.356642e-09	1.901597e-07	1.347567e-09	1.200000e+00	1.200000e+00	1.199998e+00	1.200000e+00	
1	1.000000e-13	0.000000e+00	1.199997e+00	1.199997e+00	8.323960e-06	1.199999e+00	-3.974678e-07	-1.644347e-06	-1.663309e-06	-1.214922e-07	1.200003e+00	1.200013e+00	1.200011e+00	1.200001e+00	
2	2.000000e-13	0.000000e+00	1.199997e+00	1.199996e+00	6.043074e-06	1.199999e+00	-4.439971e-07	-1.856425e-06	-2.905990e-06	-1.831980e-07	1.200003e+00	1.200013e+00	1.200017e+00	1.200001e+00	
3	4.000000e-13	0.000000e+00	1.199997e+00	1.199995e+00	2.136760e-06	1.199998e+00	-4.023875e-07	-1.714525e-06	-4.624610e-06	-2.180680e-07	1.200002e+00	1.200009e+00	1.200027e+00	1.200001e+00	
4	8.000000e-13	0.000000e+00	1.199998e+00	1.199997e+00	-2.823025e-06	1.199999e+00	-2.618392e-07	-1.196125e-06	-5.423438e-06	-1.389272e-07	1.200001e+00	1.200004e+00	1.200033e+00	1.200001e+00	
5	1.600000e-12	0.000000e+00	1.199998e+00	1.199998e+00	-6.147992e-06	1.199999e+00	-1.626593e-07	-7.788763e-07	-4.019195e-06	-8.223420e-08	1.200000e+00	1.200001e+00	1.200029e+00	1.200000e+00	
6	3.200000e-12	0.000000e+00	1.199999e+00	1.199999e+00	-2.834618e-06	1.200000e+00	-5.305688e-08	-2.598546e-07	-1.374156e-06	-2.974920e-08	1.200000e+00	1.200000e+00	1.200018e+00	1.200000e+00	
7	6.400000e-12	0.000000e+00	1.200000e+00	1.200000e+00	6.160226e-06	1.200000e+00	-2.603340e-08	-1.280250e-07	-2.178365e-07	-1.055045e-08	1.200000e+00	1.200000e+00	1.200003e+00	1.200000e+00	
8	1.280000e-11	0.000000e+00	1.200000e+00	1.200000e+00	1.049970e-05	1.200000e+00	1.448176e-09	-4.782334e-09	-6.770985e-09	-1.911907e-09	1.200000e+00	1.200000e+00	1.199974e+00	1.200000e+00	
9	2.280000e-11	0.000000e+00	1.200000e+00	1.200000e+00	1.013872e-05	1.200000e+00	-1.144860e-08	-6.196306e-08	7.914774e-08	-3.073697e-09	1.200000e+00	1.200000e+00	1.199934e+00	1.200000e+00	
10	3.280000e-11	0.000000e+00	1.200000e+00	1.200000e+00	1.071023e-05	1.200000e+00	6.233657e-09	1.713436e-08	9.743555e-08	4.222580e-10	1.200000e+00	1.200000e+00	1.199903e+00	1.200000e+00	
11	4.280000e-11	0.000000e+00	1.200000e+00	1.200000e+00	1.064029e-05	1.200000e+00	-8.527618e-09	-4.902717e-08	1.291552e-07	-1.544505e-09	1.200000e+00	1.200000e+00	1.199881e+00	1.200000e+00	
12	5.280000e-11	0.000000e+00	1.200000e+00	1.200000e+00	1.085417e-05	1.200000e+00	8.280389e-09	2.656639e-08	1.438350e-07	1.384061e-09	1.200000e+00	1.200000e+00	1.199864e+00	1.200000e+00	
13	6.280000e-11	0.000000e+00	1.200000e+00	1.200000e+00	1.085922e-05	1.200000e+00	-6.886786e-09	-4.179658e-08	1.560115e-07	-6.615337e-10	1.200000e+00	1.200000e+00	1.199853e+00	1.200000e+00	
14	7.280000e-11	0.000000e+00	1.200000e+00	1.200000e+00	1.095247e-05	1.200000e+00	9.263918e-09	3.115252e-08	1.679537e-07	1.818905e-09	1.200000e+00	1.200000e+00	1.199844e+00	1.200000e+00	
15	8.280000e-11	0.000000e+00	1.200000e+00	1.200000e+00	1.096278e-05	1.200000e+00	-5.939992e-09	-3.765917e-08	1.702391e-07	-1.324028e-10	1.200000e+00	1.200000e+00	1.199839e+00	1.200000e+00	
16	9.280000e-11	0.000000e+00	1.200000e+00	1.200000e+00	1.100916e-05	1.200000e+00	9.690435e-09	3.319759e-08	1.804025e-07	1.981046e-09	1.200000e+00	1.200000e+00	1.199834e+00	1.200000e+00	
17	1.028000e-10	0.000000e+00	1.200000e+00	1.200000e+00	1.101439e-05	1.200000e+00	-5.358067e-09	-3.514568e-08	1.778254e-07	2.074433e-10	1.200000e+00	1.200000e+00	1.199831e+00	1.200000e+00	
18	1.128000e-10	0.000000e+00	1.200000e+00	1.200000e+00	1.104011e-05	1.200000e+00	9.828983e-09	3.392630e-08	1.868047e-07	2.005404e-09	1.200000e+00	1.200000e+00	1.199829e+00	1.200000e+00	
19	1.228000e-10	0.000000e+00	1.200000e+00	1.200000e+00	1.104073e-05	1.200000e+00	-4.970808e-09	-3.349610e-08	1.818815e-07	4.433285e-10	1.200000e+00	1.200000e+00	1.199827e+00	1.200000e+00	
20	1.328000e-10	0.000000e+00	1.200000e+00	1.200000e+00	1.105666e-05	1.200000e+00	9.820328e-09	3.397901e-08	1.900848e-07	1.962328e-09	1.200000e+00	1.200000e+00	1.199826e+00	1.200000e+00	
21	1.428000e-10	0.000000e+00	1.200000e+00	1.200000e+00	1.105433e-05	1.200000e+00	-4.688469e-09	-3.230939e-08	1.840623e-07	6.204759e-10	1.200000e+00	1.200000e+00	1.199825e+00	1.200000e+00	
22	1.528000e-10	0.000000e+00	1.200000e+00	1.200000e+00	1.106540e-05	1.200000e+00	9.737356e-09	3.368723e-08	1.917495e-07	1.888027e-09	1.200000e+00	1.200000e+00	1.199824e+00	1.200000e+00	
23	1.628000e-10	0.000000e+00	1.200000e+00	1.200000e+00	1.106141e-05	1.200000e+00	-4.463453e-09	-3.137285e-08	1.852509e-07	7.630723e-10	1.200000e+00	1.200000e+00	1.199824e+00	1.200000e+00	
24	1.728000e-10	0.000000e+00	1.200000e+00	1.200000e+00	1.106998e-05	1.200000e+00	9.617719e-09	3.322230e-08	1.925751e-07	1.801008e-09	1.200000e+00	1.200000e+00	1.199823e+00	1.200000e+00	
25	1.828000e-10	0.000000e+00	1.200000e+00	1.200000e+00	1.106514e-05	1.200000e+00	-4.270497e-09	-3.057369e-08	1.859171e-07	8.841340e-10	1.200000e+00	1.200000e+00	1.199823e+00	1.200000e+00	
26	1.928000e-10	0.000000e+00	1.200000e+00	1.200000e+00	1.107234e-05	1.200000e+00	9.480857e-09	3.267287e-08	1.929633e-07	1.710652e-09	1.200000e+00	1.200000e+00	1.199823e+00	1.200000e+00	
27	2.000000e-10	0.000000e+00	1.200000e+00	1.200000e+00	1.106695e-05	1.200000e+00	-4.067667e-09	-2.973545e-08	1.862900e-07	1.008212e-09	1.200000e+00	1.200000e+00	1.199823e+00	1.200000e+00	
28	2.010000e-10	9.600000e-03	1.200002e+00	1.200027e+00	3.681386e-03	1.200001e+00	3.009938e-05	2.777643e-05	6.837329e-03	1.415941e-05	1.200000e+00	1.200000e+00	1.199824e+00	1.200000e+00	
29	2.030000e-10	2.880000e-02	1.199979e+00	1.200025e+00	1.543630e-02	1.199990e+00	4.675758e-05	4.084013e-05	2.440215e-02	2.367099e-05	1.200000e+00	1.200000e+00	1.199834e+00	1.200000e+00	
30	2.070000e-10	6.720000e-02	1.200012e+00	1.200004e+00	5.067290e-02	1.200004e+00	3.344743e-05	1.587798e-05	6.344896e-02	1.665220e-05	1.200000e+00	1.200000e+00	1.199942e+00	1.200000e+00	
31	2.150000e-10	1.440000e-01	1.199993e+00	1.199988e+00	1.273187e-01	1.199998e+00	3.665257e-05	1.374722e-05	1.395039e-01	1.837079e-05	1.200000e+00	1.200000e+00	1.200443e+00	1.200000e+00	
32	2.250000e-10	2.400000e-01	1.199965e+00	1.199913e+00	2.228422e-01	1.199981e+00	2.218505e-05	-2.312499e-05	2.354713e-01	1.113897e-05	1.200000e+00	1.199999e+00	1.200477e+00	1.200000e+00	
33	2.350000e-10	3.360000e-01	1.199840e+00	1.199742e+00	3.177515e-01	1.199923e+00	1.461219e-05	-8.375054e-05	3.298568e-01	7.307827e-06	1.199997e+00	1.199998e+00	1.197375e+00	1.199998e+00	
34	2.450000e-10	4.320000e-01	1.199878e+00	1.199620e+00	4.126963e-01	1.199936e+00	-2.438511e-06	-1.665148e-04	4.255644e-01	-1.115063e-06	1.199991e+00	1.199994e+00	1.187006e+00	1.199996e+00	
35	2.550000e-10	5.280000e-01	1.199937e+00	1.199512e+00	5.083617e-01	1.199971e+00	-2.030320e-05	-2.580340e-04	5.207148e-01	-1.014227e-05	1.199983e+00	1.199990e+00	1.164124e+00	1.199992e+00	
36	2.650000e-10	6.240000e-01	1.199860e+00	1.199187e+00	6.022356e-01	1.199929e+00	-6.528855e-05	-4.573712e-04	6.159549e-01	-3.237402e-05	1.199972e+00	1.199987e+00	1.122761e+00	1.199986e+00	
37	2.750000e-10	7.200000e-01	1.199789e+00	1.198814e+00	6.957916e-01	1.199896e+00	-1.294896e-04	-7.420745e-04	7.096649e-01	-6.460964e-05	1.199961e+00	1.199997e+00	1.054256e+00	1.199981e+00	
38	2.850000e-10	8.160000e-01	1.199755e+00	1.198704e+00	7.949543e-01	1.199876e+00	-1.690080e-04	-9.148090e-04	8.026739e-01	-8.439037e-05	1.199971e+00	1.200104e+00	9.504052e-01	1.199985e+00	
39	2.950000e-10	9.120000e-01	1.199830e+00	1.199017e+00	8.947432e-01	1.199916e+00	-1.402978e-04	-7.908476e-04	8.996415e-01	-7.043796e-05	1.200003e+00	1.200392e+00	8.117087e-01	1.200002e+00	
40	3.050000e-10	1.008000e+00	1.199979e+00	1.199731e+00	9.955314e-01	1.199987e+00	-4.297160e-05	-2.489606e-04	9.985026e-01	-2.180827e-05	1.200215e+00	1.201348e+00	6.550645e-01	1.200106e+00	
41	3.150000e-10	1.104000e+00	1.200002e+00	1.199788e+00	1.094268e+00	1.200003e+00	-7.338517e-05	-2.157354e-04	1.095217e+00	-3.618925e-05	1.200763e+00	1.203594e+00	5.325361e-01	1.200378e+00	
42	3.250000e-10	1.200000e+00	1.200029e+00	1.199937e+00	1.190389e+00	1.200012e+00	-6.260121e-05	-1.088378e-04	1.191263e+00	-3.185840e-05	1.200084e+00	1.200494e+00	4.060130e-01	1.200051e+00	
43	3.260000e-10	1.200000e+00	1.200000e+00	1.199891e+00	1.195090e+00	1.200001e+00	-6.839325e-05	-1.318749e-04	1.195629e+00	-3.405830e-05	1.200078e+00	1.200397e+00	3.905158e-01	1.200040e+00	
44	3.280000e-10	1.200000e+00	1.199969e+00	1.199868e+00	1.199478e+00	1.199985e+00	-8.052082e-05	-1.441715e-04	1.199499e+00	-4.002364e-05	1.200205e+00	1.200569e+00	3.634912e-01	1.200096e+00	
45	3.320000e-10	1.200000e+00	1.199981e+00	1.199910e+00	1.199249e+00	1.199990e+00	-5.726164e-05	-1.019211e-04	1.199117e+00	-2.920764e-05	1.200200e+00	1.200414e+00	3.197947e-01	1.200106e+00	
46	3.400000e-10	1.200000e+00	1.199982e+00	1.199919e+00	1.199602e+00	1.199991e+00	-5.484176e-05	-9.251983e-05	1.199567e+00	-2.688064e-05	1.200094e+00	1.200152e+00	2.466316e-01	1.200043e+00	
47	3.500000e-10	1.200000e+00	1.199988e+00	1.199946e+00	1.199564e+00	1.199994e+00	-3.763827e-05	-6.306831e-05	1.199467e+00	-1.945279e-05	1.200028e+00	1.200060e+00	1.774241e-01	1.200019e+00	
48	3.600000e-10	1.200000e+00	1.199990e+00	1.199957e+00	1.199791e+00	1.199996e+00	-3.119826e-05	-5.028431e-05	1.199765e+00	-1.502121e-05	1.200012e+00	1.200008e+00	1.276001e-01	1.200001e+00	
49	3.700000e-10	1.200000e+00	1.199994e+00	1.199972e+00	1.199769e+00	1.199996e+00	-2.040934e-05	-3.363391e-05	1.199709e+00	-1.083523e-05	1.200005e+00	1.200021e+00	9.180638e-02	1.200007e+00	
50	3.800000e-10	1.200000e+00	1.199995e+00	1.199978e+00	1.199895e+00	1.199998e+00	-1.643187e-05	-2.585887e-05	1.199880e+00	-7.625738e-06	1.200002e+00	1.199993e+00	6.600072e-02	1.199997e+00	
51	3.900000e-10	1.200000e+00	1.199997e+00	1.199986e+00	1.199878e+00	1.199998e+00	-1.056455e-05	-1.762182e-05	1.199843e+00	-5.894251e-06	1.200002e+00	1.200015e+00	4.748004e-02	1.200005e+00	
52	4.000000e-10	1.200000e+00	1.199998e+00	1.199989e+00	1.199947e+00	1.199999e+00	-8.451700e-06	-1.303764e-05	1.199939e+00	-3.642198e-06	1.200000e+00	1.199990e+00	3.414308e-02	1.199996e+00	
53	4.100000e-10	1.200000e+00	1.199998e+00	1.199993e+00	1.199936e+00	1.199999e+00	-5.332695e-06	-9.285333e-06	1.199915e+00	-3.254870e-06	1.200001e+00	1.200013e+00	2.458440e-02	1.200004e+00	
54	4.200000e-10	1.200000e+00	1.199999e+00	1.199994e+00	1.199973e+00	1.200000e+00	-4.256316e-06	-6.388525e-06	1.199968e+00	-1.560938e-06	1.200000e+00	1.199989e+00	1.770641e-02	1.199996e+00	
55	4.300000e-10	1.200000e+00	1.199999e+00	1.199996e+00	1.199965e+00	1.199999e+00	-2.610870e-06	-4.981244e-06	1.199953e+00	-1.868783e-06	1.200001e+00	1.200012e+00	1.278119e-02	1.200004e+00	
56	4.400000e-10	1.200000e+00	1.200000e+00	1.199997e+00	1.199986e+00	1.200000e+00	-2.080522e-06	-2.961173e-06	1.199982e+00	-4.941992e-07	1.199999e+00	1.199989e+00	9.238229e-03	1.199996e+00	
57	4.500000e-10	1.200000e+00	1.199999e+00	1.199998e+00	1.199981e+00	1.199999e+00	-1.202553e-06	-2.762379e-06	1.199973e+00	-1.139226e-06	1.200001e+00	1.200012e+00	6.702942e-03	1.200003e+00	
58	4.600000e-10	1.200000e+00	1.200000e+00	1.199999e+00	1.199992e+00	1.200000e+00	-9.548863e-07	-1.196808e-06	1.199989e+00	4.560636e-08	1.199999e+00	1.199989e+00	4.878726e-03	1.199997e+00	
59	4.700000e-10	1.200000e+00	1.200000e+00	1.199999e+00	1.199989e+00	1.199999e+00	-4.751205e-07	-1.616159e-06	1.199984e+00	-7.505967e-07	1.200000e+00	1.200011e+00	3.574577e-03	1.200003e+00	
60	4.800000e-10	1.200000e+00	1.200000e+00	1.199999e+00	1.199995e+00	1.200000e+00	-3.754960e-07	-2.931455e-07	1.199993e+00	3.119262e-07	1.199999e+00	1.199989e+00	2.635282e-03	1.199997e+00	
61	4.900000e-10	1.200000e+00	1.200000e+00	1.199999e+00	1.199993e+00	1.199999e+00	-9.853788e-08	-1.020527e-06	1.199989e+00	-5.382513e-07	1.200000e+00	1.200010e+00	1.964923e-03	1.200003e+00	
62	5.000000e-10	1.200000e+00	1.200000e+00	1.200000e+00	1.199997e+00	1.200000e+00	-7.920705e-08	1.655465e-07	1.199994e+00	4.371126e-07	1.199999e+00	1.199990e+00	1.481008e-03	1.199997e+00	
63	5.100000e-10	1.200000e+00	1.200000e+00	1.200000e+00	1.199996e+00	1.200000e+00	9.780203e-08	-7.071941e-07	1.199992e+00	-4.170729e-07	1.200000e+00	1.200010e+00	1.136824e-03	1.200003e+00	
64	5.200000e-10	1.200000e+00	1.200000e+00	1.200000e+00	1.199998e+00	1.200000e+00	7.063974e-08	3.943573e-07	1.199995e+00	4.898879e-07	1.199999e+00	1.199990e+00	8.871807e-04	1.199997e+00	
65	5.300000e-10	1.200000e+00	1.200000e+00	1.200000e+00	1.199997e+00	1.200000e+00	2.016550e-07	-5.385784e-07	1.199994e+00	-3.432628e-07	1.200000e+00	1.200010e+00	7.108377e-04	1.200002e+00	
66	5.400000e-10	1.200000e+00	1.200000e+00	1.200000e+00	1.199998e+00	1.200000e+00	1.448476e-07	5.045214e-07	1.199995e+00	5.058358e-07	1.199999e+00	1.199990e+00	5.816947e-04	1.199998e+00	
67	5.500000e-10	1.200000e+00	1.200000e+00	1.200000e+00	1.199998e+00	1.200000e+00	2.580353e-07	-4.442239e-07	1.199995e+00	-2.943315e-07	1.200000e+00	1.200009e+00	4.917128e-04	1.200002e+00	
68	5.600000e-10	1.200000e+00	1.200000e+00	1.200000e+00	1.199998e+00	1.200000e+00	1.800643e-07	5.535657e-07	1.199996e+00	5.033496e-07	1.200000e+00	1.199991e+00	4.245459e-04	1.199998e+00	
69	5.700000e-10	1.200000e+00	1.200000e+00	1.200000e+00	1.199998e+00	1.200000e+00	2.899946e-07	-3.880853e-07	1.199995e+00	-2.587362e-07	1.200000e+00	1.200009e+00	3.789978e-04	1.200002e+00	
70	5.800000e-10	1.200000e+00	1.200000e+00	1.200000e+00	1.199998e+00	1.200000e+00	1.952520e-07	5.712464e-07	1.199996e+00	4.919192e-07	1.200000e+00	1.199991e+00	3.437077e-04	1.199998e+00	
71	5.900000e-10	1.200000e+00	1.200000e+00	1.200000e+00	1.199998e+00	1.200000e+00	3.093264e-07	-3.517340e-07	1.199995e+00	-2.305444e-07	1.200000e+00	1.200008e+00	3.210173e-04	1.200002e+00	
72	6.000000e-10	1.200000e+00	1.200000e+00	1.200000e+00	1.199998e+00	1.200000e+00	2.002207e-07	5.729575e-07	1.199996e+00	4.764270e-07	1.200000e+00	1.199991e+00	3.021268e-04	1.199998e+00	
73	6.100000e-10	1.200000e+00	1.200000e+00	1.200000e+00	1.199998e+00	1.200000e+00	3.220613e-07	-3.257517e-07	1.199996e+00	-2.066951e-07	1.200000e+00	1.200008e+00	2.911895e-04	1.200002e+00	
74	6.200000e-10	1.200000e+00	1.200000e+00	1.200000e+00	1.199998e+00	1.200000e+00	2.000439e-07	5.666622e-07	1.199996e+00	4.593713e-07	1.200000e+00	1.199992e+00	2.807422e-04	1.199998e+00	
75	6.300000e-10	1.200000e+00	1.200000e+00	1.200000e+00	1.199998e+00	1.200000e+00	3.312841e-07	-3.053240e-07	1.199996e+00	-1.855961e-07	1.200000e+00	1.200008e+00	2.758410e-04	1.200001e+00	
76	6.400000e-10	1.200000e+00	1.200000e+00	1.200000e+00	1.199998e+00	1.200000e+00	1.973436e-07	5.564775e-07	1.199996e+00	4.420171e-07	1.200000e+00	1.199992e+00	2.697482e-04	1.199998e+00	
77	6.500000e-10	1.200000e+00	1.200000e+00	1.200000e+00	1.199998e+00	1.200000e+00	3.385744e-07	-2.879876e-07	1.199996e+00	-1.664066e-07	1.200000e+00	1.200008e+00	2.679391e-04	1.200001e+00	
78	6.600000e-10	1.200000e+00	1.200000e+00	1.200000e+00	1.199998e+00	1.200000e+00	1.934719e-07	5.445285e-07	1.199996e+00	4.249923e-07	1.200000e+00	1.199992e+00	2.641004e-04	1.199998e+00	
79	6.700000e-10	1.200000e+00	1.200000e+00	1.200000e+00	1.199998e+00	1.200000e+00	3.447438e-07	-2.724782e-07	1.199996e+00	-1.486701e-07	1.200000e+00	1.200007e+00	2.638666e-04	1.200001e+00	
80	6.800000e-10	1.200000e+00	1.200000e+00	1.200000e+00	1.199998e+00	1.200000e+00	1.891238e-07	5.319081e-07	1.199996e+00	4.085957e-07	1.200000e+00	1.199993e+00	2.612036e-04	1.199999e+00	
81	6.900000e-10	1.200000e+00	1.200000e+00	1.200000e+00	1.199998e+00	1.200000e+00	3.502118e-07	-2.581431e-07	1.199996e+00	-1.321277e-07	1.200000e+00	1.200007e+00	2.617630e-04	1.200001e+00	
82	7.000000e-10	1.200000e+00	1.200000e+00	1.200000e+00	1.199998e+00	1.200000e+00	1.846535e-07	5.191745e-07	1.199996e+00	3.929569e-07	1.200000e+00	1.199993e+00	2.597225e-04	1.199999e+00	
83	7.100000e-10	1.200000e+00	1.200000e+00	1.200000e+00	1.199998e+00	1.200000e+00	3.551986e-07	-2.446412e-07	1.199996e+00	-1.166224e-07	1.200000e+00	1.200007e+00	2.606717e-04	1.200001e+00	
84	7.200000e-10	1.200000e+00	1.200000e+00	1.200000e+00	1.199998e+00	1.200000e+00	1.802385e-07	5.066083e-07	1.199996e+00	3.781191e-07	1.200000e+00	1.199993e+00	2.589700e-04	1.199999e+00	
85	7.300000e-10	1.200000e+00	1.200000e+00	1.200000e+00	1.199998e+00	1.200000e+00	3.598219e-07	-2.317900e-07	1.199996e+00	-1.020503e-07	1.200000e+00	1.200006e+00	2.601008e-04	1.200001e+00	
86	7.400000e-10	1.200000e+00	1.200000e+00	1.200000e+00	1.199998e+00	1.200000e+00	1.759653e-07	4.943468e-07	1.199996e+00	3.640818e-07	1.200000e+00	1.199993e+00	2.585925e-04	1.199999e+00	
87	7.500000e-10	1.200000e+00	1.200000e+00	1.200000e+00	1.199998e+00	1.200000e+00	3.641476e-07	-2.194883e-07	1.199996e+00	-8.833576e-08	1.200000e+00	1.200006e+00	2.597975e-04	1.200001e+00	
88	7.600000e-10	1.200000e+00	1.200000e+00	1.200000e+00	1.199998e+00	1.200000e+00	1.718731e-07	4.824528e-07	1.199996e+00	3.508232e-07	1.200000e+00	1.199994e+00	2.584081e-04	1.199999e+00	
89	7.700000e-10	1.200000e+00	1.200000e+00	1.200000e+00	1.199998e+00	1.200000e+00	3.682148e-07	-2.076761e-07	1.199996e+00	-7.541888e-08	1.200000e+00	1.200006e+00	2.596318e-04	1.200001e+00	
90	7.800000e-10	1.200000e+00	1.200000e+00	1.200000e+00	1.199998e+00	1.200000e+00	1.679767e-07	4.709508e-07	1.199996e+00	3.383116e-07	1.200000e+00	1.199994e+00	2.583229e-04	1.199999e+00	
91	7.900000e-10	1.200000e+00	1.200000e+00	1.200000e+00	1.199998e+00	1.200000e+00	3.720487e-07	-1.963147e-07	1.199996e+00	-6.324881e-08	1.199999e+00	1.200006e+00	2.595369e-04	1.200001e+00	
92	8.000000e-10	1.200000e+00	1.200000e+00	1.200000e+00	1.199998e+00	1.200000e+00	1.642789e-07	4.598457e-07	1.199996e+00	3.265110e-07	1.200000e+00	1.199994e+00	2.582886e-04	1.199999e+00	
93	8.100000e-10	1.200000e+00	1.200000e+00	1.200000e+00	1.199998e+00	1.200000e+00	3.756674e-07	-1.853767e-07	1.199996e+00	-5.178044e-08	1.199999e+00	1.200006e+00	2.594786e-04	1.200001e+00	
94	8.200000e-10	1.200000e+00	1.200000e+00	1.200000e+00	1.199998e+00	1.200000e+00	1.607760e-07	4.491325e-07	1.199996e+00	3.153847e-07	1.200000e+00	1.199994e+00	2.582805e-04	1.199999e+00	
95	8.300000e-10	1.200000e+00	1.200000e+00	1.200000e+00	1.199998e+00	1.200000e+00	3.790850e-07	-1.748405e-07	1.199996e+00	-4.097266e-08	1.199999e+00	1.200005e+00	2.594392e-04	1.200001e+00	
96	8.400000e-10	1.200000e+00	1.200000e+00	1.200000e+00	1.199998e+00	1.200000e+00	1.574616e-07	4.388012e-07	1.199996e+00	3.048963e-07	1.200000e+00	1.199994e+00	2.582855e-04	1.199999e+00	
97	8.500000e-10	1.200000e+00	1.200000e+00	1.200000e+00	1.199998e+00	1.200000e+00	3.823131e-07	-1.646880e-07	1.199996e+00	-3.078736e-08	1.199999e+00	1.200005e+00	2.594099e-04	1.200000e+00	
98	8.600000e-10	1.200000e+00	1.200000e+00	1.200000e+00	1.199998e+00	1.200000e+00	1.543277e-07	4.288399e-07	1.199996e+00	2.950106e-07	1.200000e+00	1.199995e+00	2.582971e-04	1.199999e+00	
99	8.700000e-10	1.200000e+00	1.200000e+00	1.200000e+00	1.199998e+00	1.200000e+00	3.853624e-07	-1.549027e-07	1.199996e+00	-2.118897e-08	1.199999e+00	1.200005e+00	2.593858e-04	1.200000e+00	
100	8.800000e-10	1.200000e+00	1.200000e+00	1.200000e+00	1.199998e+00	1.200000e+00	1.513661e-07	4.192355e-07	1.199996e+00	2.856939e-07	1.200000e+00	1.199995e+00	2.583118e-04	1.199999e+00	
101	8.900000e-10	1.200000e+00	1.200000e+00	1.200000e+00	1.199998e+00	1.200000e+00	3.882423e-07	-1.454697e-07	1.199996e+00	-1.214406e-08	1.199999e+00	1.200005e+00	2.593648e-04	1.200000e+00	
102	9.000000e-10	1.200000e+00	1.200000e+00	1.200000e+00	1.199998e+00	1.200000e+00	1.485685e-07	4.099748e-07	1.199996e+00	2.769143e-07	1.200000e+00	1.199995e+00	2.583280e-04	1.199999e+00	
103	9.100000e-10	1.200000e+00	1.200000e+00	1.200000e+00	1.199998e+00	1.200000e+00	3.909616e-07	-1.363749e-07	1.199996e+00	-3.621166e-09	1.199999e+00	1.200005e+00	2.593456e-04	1.200000e+00	
104	9.200000e-10	1.200000e+00	1.200000e+00	1.200000e+00	1.199998e+00	1.200000e+00	1.459268e-07	4.010449e-07	1.199996e+00	2.686414e-07	1.200000e+00	1.199995e+00	2.583445e-04	1.199999e+00	
105	9.300000e-10	1.200000e+00	1.200000e+00	1.200000e+00	1.199998e+00	1.200000e+00	3.935288e-07	-1.276051e-07	1.199996e+00	4.409349e-09	1.199999e+00	1.200004e+00	2.593276e-04	1.200000e+00	
106	9.400000e-10	1.200000e+00	1.200000e+00	1.200000e+00	1.199998e+00	1.200000e+00	1.434331e-07	3.924331e-07	1.199996e+00	2.608466e-07	1.200000e+00	1.199995e+00	2.583610e-04	1.199999e+00	
107	9.500000e-10	1.200000e+00	1.200000e+00	1.200000e+00	1.199998e+00	1.200000e+00	3.959514e-07	-1.191475e-07	1.199996e+00	1.197545e-08	1.199999e+00	1.200004e+00	2.593105e-04	1.200000e+00	
108	9.600000e-10	1.200000e+00	1.200000e+00	1.200000e+00	1.199998e+00	1.200000e+00	1.410800e-07	3.841273e-07	1.199996e+00	2.535028e-07	1.200000e+00	1.199996e+00	2.583773e-04	1.199999e+00	
109	9.700000e-10	1.200000e+00	1.200000e+00	1.200000e+00	1.199998e+00	1.200000e+00	3.982371e-07	-1.109900e-07	1.199996e+00	1.910354e-08	1.199999e+00	1.200004e+00	2.592940e-04	1.200000e+00	
110	9.800000e-10	1.200000e+00	1.200000e+00	1.200000e+00	1.199998e+00	1.200000e+00	1.388602e-07	3.761155e-07	1.199996e+00	2.465843e-07	1.200000e+00	1.199996e+00	2.583931e-04	1.200000e+00	
111	9.900000e-10	1.200000e+00	1.200000e+00	1.200000e+00	1.199998e+00	1.200000e+00	4.003927e-07	-1.031209e-07	1.199996e+00	2.581850e-08	1.199999e+00	1.200004e+00	2.592782e-04	1.200000e+00	
112	1.000000e-09	1.200000e+00	1.200000e+00	1.200000e+00	1.199998e+00	1.200000e+00	1.367672e-07	3.683866e-07	1.199996e+00	2.400671e-07	1.200000e+00	1.199996e+00	2.584085e-04	1.200000e+00	
113	1.010000e-09	1.200000e+00	1.200000e+00	1.200000e+00	1.199998e+00	1.200000e+00	4.024249e-07	-9.552929e-08	1.199996e+00	3.214383e-08	1.199999e+00	1.200004e+00	2.592630e-04	1.200000e+00	
114	1.020000e-09	1.200000e+00	1.200000e+00	1.200000e+00	1.199998e+00	1.200000e+00	1.347943e-07	3.609297e-07	1.199996e+00	2.339281e-07	1.200000e+00	1.199996e+00	2.584234e-04	1.200000e+00	
115	1.030000e-09	1.200000e+00	1.200000e+00	1.200000e+00	1.199998e+00	1.200000e+00	4.043400e-07	-8.820439e-08	1.199996e+00	3.810172e-08	1.199999e+00	1.200004e+00	2.592483e-04	1.200000e+00	
116	1.040000e-09	1.200000e+00	1.200000e+00	1.200000e+00	1.199998e+00	1.200000e+00	1.329355e-07	3.537343e-07	1.199996e+00	2.281461e-07	1.200000e+00	1.199996e+00	2.584379e-04	1.200000e+00	
117	1.050000e-09	1.200000e+00	1.200000e+00	1.200000e+00	1.199998e+00	1.200000e+00	4.061439e-07	-8.113602e-08	1.199996e+00	4.371310e-08	1.199999e+00	1.200004e+00	2.592341e-04	1.200000e+00	
118	1.060000e-09	1.200000e+00	1.200000e+00	1.200000e+00	1.199998e+00	1.200000e+00	1.311851e-07	3.467905e-07	1.199996e+00	2.227005e-07	1.200000e+00	1.199996e+00	2.584518e-04	1.200000e+00	
119	1.070000e-09	1.200000e+00	1.200000e+00	1.200000e+00	1.199998e+00	1.200000e+00	4.078423e-07	-7.431440e-08	1.199996e+00	4.899771e-08	1.199999e+00	1.200003e+00	2.592204e-04	1.200000e+00	
120	1.080000e-09	1.200000e+00	1.200000e+00	1.200000e+00	1.199998e+00	1.200000e+00	1.295375e-07	3.400887e-07	1.199996e+00	2.175722e-07	1.200000e+00	1.199996e+00	2.584652e-04	1.200000e+00	
121	1.090000e-09	1.200000e+00	1.200000e+00	1.200000e+00	1.199998e+00	1.200000e+00	4.094404e-07	-6.773017e-08	1.199996e+00	5.397420e-08	1.199999e+00	1.200003e+00	2.592071e-04	1.200000e+00	
122	1.100000e-09	1.200000e+00	1.200000e+00	1.200000e+00	1.199998e+00	1.200000e+00	1.279875e-07	3.336198e-07	1.199996e+00	2.127431e-07	1.200000e+00	1.199996e+00	2.584782e-04	1.200000e+00	
123	1.110000e-09	1.200000e+00	1.200000e+00	1.200000e+00	1.199998e+00	1.200000e+00	4.109435e-07	-6.137433e-08	1.199996e+00	5.866016e-08	1.199999e+00	1.200003e+00	2.591944e-04	1.200000e+00	
124	1.120000e-09	1.200000e+00	1.200000e+00	1.200000e+00	1.199998e+00	1.200000e+00	1.265302e-07	3.273749e-07	1.199996e+00	2.081961e-07	1.200000e+00	1.199997e+00	2.584908e-04	1.200000e+00	
125	1.130000e-09	1.200000e+00	1.200000e+00	1.200000e+00	1.199998e+00	1.200000e+00	4.123563e-07	-5.523826e-08	1.199996e+00	6.307218e-08	1.199999e+00	1.200003e+00	2.591821e-04	1.200000e+00	
126	1.140000e-09	1.200000e+00	1.200000e+00	1.200000e+00	1.199998e+00	1.200000e+00	1.251608e-07	3.213456e-07	1.199996e+00	2.039151e-07	1.200000e+00	1.199997e+00	2.585028e-04	1.200000e+00	
127	1.150000e-09	1.200000e+00	1.200000e+00	1.200000e+00	1.199998e+00	1.200000e+00	4.136833e-07	-4.931370e-08	1.199996e+00	6.722594e-08	1.199999e+00	1.200003e+00	2.591702e-04	1.200000e+00	
128	1.160000e-09	1.200000e+00	1.200000e+00	1.200000e+00	1.199998e+00	1.200000e+00	1.238750e-07	3.155238e-07	1.199996e+00	1.998849e-07	1.200000e+00	1.199997e+00	2.585145e-04	1.200000e+00	
129	1.170000e-09	1.200000e+00	1.200000e+00	1.200000e+00	1.199998e+00	1.200000e+00	4.149289e-07	-4.359272e-08	1.199996e+00	7.113621e-08	1.199999e+00	1.200003e+00	2.591587e-04	1.200000e+00	
130	1.180000e-09	1.200000e+00	1.200000e+00	1.200000e+00	1.199998e+00	1.200000e+00	1.226686e-07	3.099017e-07	1.199996e+00	1.960911e-07	1.200000e+00	1.199997e+00	2.585258e-04	1.200000e+00	
131	1.190000e-09	1.200000e+00	1.200000e+00	1.200000e+00	1.199998e+00	1.200000e+00	4.160972e-07	-3.806772e-08	1.199996e+00	7.481694e-08	1.199999e+00	1.200003e+00	2.591477e-04	1.200000e+00	
132	1.200000e-09	1.200000e+00	1.200000e+00	1.200000e+00	1.199998e+00	1.200000e+00	1.215375e-07	3.044720e-07	1.199996e+00	1.925202e-07	1.200000e+00	1.199997e+00	2.585366e-04	1.200000e+00	
133	1.210000e-09	1.200000e+00	1.200000e+00	1.200000e+00	1.199998e+00	1.200000e+00	4.171921e-07	-3.273141e-08	1.199996e+00	7.828128e-08	1.199999e+00	1.200003e+00	2.591370e-04	1.200000e+00	
134	1.220000e-09	1.200000e+00	1.200000e+00	1.200000e+00	1.199998e+00	1.200000e+00	1.204779e-07	2.992273e-07	1.199996e+00	1.891593e-07	1.200000e+00	1.199997e+00	2.585471e-04	1.200000e+00	
135	1.230000e-09	1.200000e+00	1.200000e+00	1.200000e+00	1.199998e+00	1.200000e+00	4.182172e-07	-2.757678e-08	1.199996e+00	8.154166e-08	1.199999e+00	1.200003e+00	2.591267e-04	1.200000e+00	
136	1.240000e-09	1.200000e+00	1.200000e+00	1.200000e+00	1.199998e+00	1.200000e+00	1.194863e-07	2.941610e-07	1.199996e+00	1.859965e-07	1.200000e+00	1.199997e+00	2.585572e-04	1.200000e+00	
137	1.250000e-09	1.200000e+00	1.200000e+00	1.200000e+00	1.199998e+00	1.200000e+00	4.191762e-07	-2.259712e-08	1.199996e+00	8.460978e-08	1.199999e+00	1.200002e+00	2.591168e-04	1.200000e+00	
138	1.260000e-09	1.200000e+00	1.200000e+00	1.200000e+00	1.199998e+00	1.200000e+00	1.185592e-07	2.892664e-07	1.199996e+00	1.830203e-07	1.200000e+00	1.199997e+00	2.585670e-04	1.200000e+00	
139	1.270000e-09	1.200000e+00	1.200000e+00	1.200000e+00	1.199998e+00	1.200000e+00	4.200722e-07	-1.778598e-08	1.199996e+00	8.749669e-08	1.199999e+00	1.200002e+00	2.591072e-04	1.200000e+00	
140	1.280000e-09	1.200000e+00	1.200000e+00	1.200000e+00	1.199998e+00	1.200000e+00	1.176935e-07	2.845372e-07	1.199996e+00	1.802200e-07	1.200000e+00	1.199997e+00	2.585764e-04	1.200000e+00	
141	1.290000e-09	1.200000e+00	1.200000e+00	1.200000e+00	1.199998e+00	1.200000e+00	4.209084e-07	-1.313717e-08	1.199996e+00	9.021283e-08	1.199999e+00	1.200002e+00	2.590979e-04	1.200000e+00	
142	1.300000e-09	1.200000e+00	1.200000e+00	1.200000e+00	1.199998e+00	1.200000e+00	1.168860e-07	2.799673e-07	1.199996e+00	1.775856e-07	1.200000e+00	1.199998e+00	2.585855e-04	1.200000e+00	
143	1.310000e-09	1.200000e+00	1.200000e+00	1.200000e+00	1.199998e+00	1.200000e+00	4.216878e-07	-8.644771e-09	1.199996e+00	9.276802e-08	1.199999e+00	1.200002e+00	2.590890e-04	1.200000e+00	
144	1.320000e-09	1.200000e+00	1.200000e+00	1.200000e+00	1.199998e+00	1.200000e+00	1.161339e-07	2.755510e-07	1.199996e+00	1.751073e-07	1.200000e+00	1.199998e+00	2.585942e-04	1.200000e+00	
145	1.330000e-09	1.200000e+00	1.200000e+00	1.200000e+00	1.199998e+00	1.200000e+00	4.224133e-07	-4.303059e-09	1.199996e+00	9.517154e-08	1.199999e+00	1.200002e+00	2.590804e-04	1.200000e+00	
146	1.340000e-09	1.200000e+00	1.200000e+00	1.200000e+00	1.199998e+00	1.200000e+00	1.154344e-07	2.712825e-07	1.199996e+00	1.727763e-07	1.200000e+00	1.199998e+00	2.586027e-04	1.200000e+00	
147	1.350000e-09	1.200000e+00	1.200000e+00	1.200000e+00	1.199998e+00	1.200000e+00	4.230876e-07	-1.065656e-10	1.199996e+00	9.743214e-08	1.199999e+00	1.200002e+00	2.590721e-04	1.200000e+00	
148	1.360000e-09	1.200000e+00	1.200000e+00	1.200000e+00	1.199998e+00	1.200000e+00	1.147848e-07	2.671567e-07	1.199996e+00	1.705841e-07	1.200000e+00	1.199998e+00	2.586109e-04	1.200000e+00	
149	1.370000e-09	1.200000e+00	1.200000e+00	1.200000e+00	1.199998e+00	1.200000e+00	4.237131e-07	3.949970e-09	1.199996e+00	9.955808e-08	1.199999e+00	1.200002e+00	2.590641e-04	1.200000e+00	
150	1.380000e-09	1.200000e+00	1.200000e+00	1.200000e+00	1.199998e+00	1.200000e+00	1.141827e-07	2.631682e-07	1.199996e+00	1.685225e-07	1.200000e+00	1.199998e+00	2.586188e-04	1.200000e+00	
151	1.390000e-09	1.200000e+00	1.200000e+00	1.200000e+00	1.199998e+00	1.200000e+00	4.242923e-07	7.871591e-09	1.199996e+00	1.015572e-07	1.199999e+00	1.200002e+00	2.590563e-04	1.200000e+00	
152	1.400000e-09	1.200000e+00	1.200000e+00	1.200000e+00	1.199998e+00	1.200000e+00	1.136258e-07	2.593122e-07	1.199996e+00	1.665841e-07	1.200000e+00	1.199998e+00	2.586264e-04	1.200000e+00	
153	1.410000e-09	1.200000e+00	1.200000e+00	1.200000e+00	1.199998e+00	1.200000e+00	4.248275e-07	1.166316e-08	1.199996e+00	1.034367e-07	1.199999e+00	1.200002e+00	2.590488e-04	1.200000e+00	
154	1.420000e-09	1.200000e+00	1.200000e+00	1.200000e+00	1.199998e+00	1.200000e+00	1.131117e-07	2.555839e-07	1.199996e+00	1.647617e-07	1.200000e+00	1.199998e+00	2.586337e-04	1.200000e+00	
155	1.430000e-09	1.200000e+00	1.200000e+00	1.200000e+00	1.199998e+00	1.200000e+00	4.253209e-07	1.532933e-08	1.199996e+00	1.052036e-07	1.199999e+00	1.200002e+00	2.590416e-04	1.200000e+00	
156	1.440000e-09	1.200000e+00	1.200000e+00	1.200000e+00	1.199998e+00	1.200000e+00	1.126384e-07	2.519787e-07	1.199996e+00	1.630486e-07	1.200000e+00	1.199998e+00	2.586408e-04	1.200000e+00	
157	1.450000e-09	1.200000e+00	1.200000e+00	1.200000e+00	1.199998e+00	1.200000e+00	4.257746e-07	1.887458e-08	1.199996e+00	1.068645e-07	1.199999e+00	1.200002e+00	2.590347e-04	1.200000e+00	
158	1.460000e-09	1.200000e+00	1.200000e+00	1.200000e+00	1.199998e+00	1.200000e+00	1.122039e-07	2.484923e-07	1.199996e+00	1.614385e-07	1.200000e+00	1.199998e+00	2.586476e-04	1.200000e+00	
159	1.470000e-09	1.200000e+00	1.200000e+00	1.200000e+00	1.199998e+00	1.200000e+00	4.261905e-07	2.230323e-08	1.199996e+00	1.084254e-07	1.199999e+00	1.200002e+00	2.590279e-04	1.200000e+00	
160	1.480000e-09	1.200000e+00	1.200000e+00	1.200000e+00	1.199998e+00	1.200000e+00	1.118063e-07	2.451204e-07	1.199996e+00	1.599253e-07	1.200000e+00	1.199998e+00	2.586543e-04	1.200000e+00	
161	1.490000e-09	1.200000e+00	1.200000e+00	1.200000e+00	1.199998e+00	1.200000e+00	4.265704e-07	2.561940e-08	1.199996e+00	1.098923e-07	1.199999e+00	1.200002e+00	2.590214e-04	1.200000e+00	
162	1.500000e-09	1.200000e+00	1.200000e+00	1.200000e+00	1.199998e+00	1.200000e+00	1.114436e-07	2.418590e-07	1.199996e+00	1.585034e-07	1.200000e+00	1.199998e+00	2.586606e-04	1.200000e+00	
163	1.510000e-09	1.200000e+00	1.200000e+00	1.200000e+00	1.199998e+00	1.200000e+00	4.269161e-07	2.882707e-08	1.199996e+00	1.112705e-07	1.199999e+00	1.200001e+00	2.590152e-04	1.200000e+00	
164	1.520000e-09	1.200000e+00	1.200000e+00	1.200000e+00	1.199998e+00	1.200000e+00	1.111143e-07	2.387041e-07	1.199996e+00	1.571676e-07	1.200000e+00	1.199998e+00	2.586668e-04	1.200000e+00	
165	1.530000e-09	1.200000e+00	1.200000e+00	1.200000e+00	1.199998e+00	1.200000e+00	4.272294e-07	3.193007e-08	1.199996e+00	1.125652e-07	1.199999e+00	1.200001e+00	2.590091e-04	1.200000e+00	
166	1.540000e-09	1.200000e+00	1.200000e+00	1.200000e+00	1.199998e+00	1.200000e+00	1.108167e-07	2.356521e-07	1.199996e+00	1.559127e-07	1.200000e+00	1.199998e+00	2.586727e-04	1.200000e+00	
167	1.550000e-09	1.200000e+00	1.200000e+00	1.200000e+00	1.199998e+00	1.200000e+00	4.275118e-07	3.493208e-08	1.199996e+00	1.137814e-07	1.199999e+00	1.200001e+00	2.590033e-04	1.200000e+00	
168	1.560000e-09	1.200000e+00	1.200000e+00	1.200000e+00	1.199998e+00	1.200000e+00	1.105492e-07	2.326992e-07	1.199996e+00	1.547341e-07	1.200000e+00	1.199998e+00	2.586785e-04	1.200000e+00	
169	1.570000e-09	1.200000e+00	1.200000e+00	1.200000e+00	1.199998e+00	1.200000e+00	4.277648e-07	3.783663e-08	1.199996e+00	1.149236e-07	1.199999e+00	1.200001e+00	2.589976e-04	1.200000e+00	
170	1.580000e-09	1.200000e+00	1.200000e+00	1.200000e+00	1.199998e+00	1.200000e+00	1.103103e-07	2.298421e-07	1.199996e+00	1.536272e-07	1.200000e+00	1.199998e+00	2.586840e-04	1.200000e+00	
171	1.590000e-09	1.200000e+00	1.200000e+00	1.200000e+00	1.199998e+00	1.200000e+00	4.279898e-07	4.064712e-08	1.199996e+00	1.159961e-07	1.199999e+00	1.200001e+00	2.589922e-04	1.200000e+00	
172	1.600000e-09	1.200000e+00	1.200000e+00	1.200000e+00	1.199998e+00	1.200000e+00	1.100987e-07	2.270774e-07	1.199996e+00	1.525880e-07	1.200000e+00	1.199998e+00	2.586894e-04	1.200000e+00	
173	1.610000e-09	1.200000e+00	1.200000e+00	1.200000e+00	1.199998e+00	1.200000e+00	4.281883e-07	4.336683e-08	1.199996e+00	1.170030e-07	1.199999e+00	1.200001e+00	2.589869e-04	1.200000e+00	
174	1.620000e-09	1.200000e+00	1.200000e+00	1.200000e+00	1.199998e+00	1.200000e+00	1.099131e-07	2.244019e-07	1.199996e+00	1.516124e-07	1.200000e+00	1.199999e+00	2.586946e-04	1.200000e+00	
175	1.630000e-09	1.200000e+00	1.200000e+00	1.200000e+00	1.199998e+00	1.200000e+00	4.283615e-07	4.599891e-08	1.199996e+00	1.179482e-07	1.199999e+00	1.200001e+00	2.589818e-04	1.200000e+00	
176	1.640000e-09	1.200000e+00	1.200000e+00	1.200000e+00	1.199998e+00	1.200000e+00	1.097520e-07	2.218125e-07	1.199996e+00	1.506967e-07	1.200000e+00	1.199999e+00	2.586996e-04	1.200000e+00	
177	1.650000e-09	1.200000e+00	1.200000e+00	1.200000e+00	1.199998e+00	1.200000e+00	4.285106e-07	4.854637e-08	1.199996e+00	1.188353e-07	1.199999e+00	1.200001e+00	2.589769e-04	1.200000e+00	
178	1.660000e-09	1.200000e+00	1.200000e+00	1.200000e+00	1.199998e+00	1.200000e+00	1.096145e-07	2.193062e-07	1.199996e+00	1.498374e-07	1.200000e+00	1.199999e+00	2.587044e-04	1.200000e+00	
179	1.670000e-09	1.200000e+00	1.200000e+00	1.200000e+00	1.199998e+00	1.200000e+00	4.286369e-07	5.101215e-08	1.199996e+00	1.196677e-07	1.199999e+00	1.200001e+00	2.589722e-04	1.200000e+00	
180	1.680000e-09	1.200000e+00	1.200000e+00	1.200000e+00	1.199998e+00	1.200000e+00	1.094993e-07	2.168802e-07	1.199996e+00	1.490311e-07	1.200000e+00	1.199999e+00	2.587091e-04	1.200000e+00	
181	1.690000e-09	1.200000e+00	1.200000e+00	1.200000e+00	1.199998e+00	1.200000e+00	4.287413e-07	5.339905e-08	1.199996e+00	1.204487e-07	1.199999e+00	1.200001e+00	2.589676e-04	1.200000e+00	
182	1.700000e-09	1.200000e+00	1.200000e+00	1.200000e+00	1.199998e+00	1.200000e+00	1.094053e-07	2.145318e-07	1.199996e+00	1.482747e-07	1.200000e+00	1.199999e+00	2.587136e-04	1.200000e+00	
183	1.710000e-09	1.200000e+00	1.200000e+00	1.200000e+00	1.199998e+00	1.200000e+00	4.288251e-07	5.570977e-08	1.199996e+00	1.211812e-07	1.199999e+00	1.200001e+00	2.589632e-04	1.200000e+00	
184	1.720000e-09	1.200000e+00	1.200000e+00	1.200000e+00	1.199998e+00	1.200000e+00	1.093315e-07	2.122582e-07	1.199996e+00	1.475653e-07	1.200000e+00	1.199999e+00	2.587179e-04	1.200000e+00	
185	1.730000e-09	1.200000e+00	1.200000e+00	1.200000e+00	1.199998e+00	1.200000e+00	4.288891e-07	5.794691e-08	1.199996e+00	1.218682e-07	1.199999e+00	1.200001e+00	2.589589e-04	1.200000e+00	
186	1.740000e-09	1.200000e+00	1.200000e+00	1.200000e+00	1.199998e+00	1.200000e+00	1.092770e-07	2.100569e-07	1.199996e+00	1.469000e-07	1.200000e+00	1.199999e+00	2.587221e-04	1.200000e+00	
187	1.750000e-09	1.200000e+00	1.200000e+00	1.200000e+00	1.199998e+00	1.200000e+00	4.289344e-07	6.011297e-08	1.199996e+00	1.225123e-07	1.199999e+00	1.200001e+00	2.589547e-04	1.200000e+00	
188	1.760000e-09	1.200000e+00	1.200000e+00	1.200000e+00	1.199998e+00	1.200000e+00	1.092408e-07	2.079254e-07	1.199996e+00	1.462764e-07	1.200000e+00	1.199999e+00	2.587262e-04	1.200000e+00	
189	1.770000e-09	1.200000e+00	1.200000e+00	1.200000e+00	1.199998e+00	1.200000e+00	4.289618e-07	6.221037e-08	1.199996e+00	1.231162e-07	1.199999e+00	1.200001e+00	2.589508e-04	1.200000e+00	
190	1.780000e-09	1.200000e+00	1.200000e+00	1.200000e+00	1.199998e+00	1.200000e+00	1.092220e-07	2.058615e-07	1.199996e+00	1.456918e-07	1.200000e+00	1.199999e+00	2.587301e-04	1.200000e+00	
191	1.790000e-09	1.200000e+00	1.200000e+00	1.200000e+00	1.199998e+00	1.200000e+00	4.289722e-07	6.424144e-08	1.199996e+00	1.236821e-07	1.199999e+00	1.200001e+00	2.589469e-04	1.200000e+00	
192	1.800000e-09	1.200000e+00	1.200000e+00	1.200000e+00	1.199998e+00	1.200000e+00	1.092198e-07	2.038627e-07	1.199996e+00	1.451440e-07	1.200000e+00	1.199999e+00	2.587339e-04	1.200000e+00	
193	1.810000e-09	1.200000e+00	1.200000e+00	1.200000e+00	1.199998e+00	1.200000e+00	4.289664e-07	6.620840e-08	1.199996e+00	1.242123e-07	1.199999e+00	1.200001e+00	2.589432e-04	1.200000e+00	
194	1.820000e-09	1.200000e+00	1.200000e+00	1.200000e+00	1.199998e+00	1.200000e+00	1.092334e-07	2.019270e-07	1.199996e+00	1.446308e-07	1.200000e+00	1.199999e+00	2.587376e-04	1.200000e+00	
195	1.830000e-09	1.200000e+00	1.200000e+00	1.200000e+00	1.199998e+00	1.200000e+00	4.289452e-07	6.811343e-08	1.199996e+00	1.247090e-07	1.199999e+00	1.200001e+00	2.589396e-04	1.200000e+00	
196	1.840000e-09	1.200000e+00	1.200000e+00	1.200000e+00	1.199998e+00	1.200000e+00	1.092620e-07	2.000522e-07	1.199996e+00	1.441501e-07	1.200000e+00	1.199999e+00	2.587411e-04	1.200000e+00	
197	1.850000e-09	1.200000e+00	1.200000e+00	1.200000e+00	1.199998e+00	1.200000e+00	4.289093e-07	6.995859e-08	1.199996e+00	1.251742e-07	1.199999e+00	1.200001e+00	2.589361e-04	1.200000e+00	
198	1.860000e-09	1.200000e+00	1.200000e+00	1.200000e+00	1.199998e+00	1.200000e+00	1.093050e-07	1.982362e-07	1.199996e+00	1.436999e-07	1.200000e+00	1.199999e+00	2.587445e-04	1.200000e+00	
199	1.870000e-09	1.200000e+00	1.200000e+00	1.200000e+00	1.199998e+00	1.200000e+00	4.288595e-07	7.174588e-08	1.199996e+00	1.256098e-07	1.199999e+00	1.200001e+00	2.589327e-04	1.200000e+00	
200	1.880000e-09	1.200000e+00	1.200000e+00	1.200000e+00	1.199998e+00	1.200000e+00	1.093615e-07	1.964771e-07	1.199996e+00	1.432785e-07	1.200000e+00	1.199999e+00	2.587478e-04	1.200000e+00	
201	1.890000e-09	1.200000e+00	1.200000e+00	1.200000e+00	1.199998e+00	1.200000e+00	4.287964e-07	7.347725e-08	1.199996e+00	1.260175e-07	1.199999e+00	1.200001e+00	2.589295e-04	1.200000e+00	
202	1.900000e-09	1.200000e+00	1.200000e+00	1.200000e+00	1.199998e+00	1.200000e+00	1.094310e-07	1.947730e-07	1.199996e+00	1.428841e-07	1.200000e+00	1.199999e+00	2.587510e-04	1.200000e+00	
203	1.910000e-09	1.200000e+00	1.200000e+00	1.200000e+00	1.199998e+00	1.200000e+00	4.287206e-07	7.515455e-08	1.199996e+00	1.263991e-07	1.199999e+00	1.200001e+00	2.589263e-04	1.200000e+00	
204	1.920000e-09	1.200000e+00	1.200000e+00	1.200000e+00	1.199998e+00	1.200000e+00	1.095129e-07	1.931220e-07	1.199996e+00	1.425150e-07	1.200000e+00	1.199999e+00	2.587541e-04	1.200000e+00	
205	1.930000e-09	1.200000e+00	1.200000e+00	1.200000e+00	1.199998e+00	1.200000e+00	4.286328e-07	7.677958e-08	1.199996e+00	1.267560e-07	1.199999e+00	1.200001e+00	2.589233e-04	1.200000e+00	
206	1.940000e-09	1.200000e+00	1.200000e+00	1.200000e+00	1.199998e+00	1.200000e+00	1.096065e-07	1.915225e-07	1.199996e+00	1.421698e-07	1.200000e+00	1.199999e+00	2.587571e-04	1.200000e+00	
207	1.950000e-09	1.200000e+00	1.200000e+00	1.200000e+00	1.199998e+00	1.200000e+00	4.285335e-07	7.835406e-08	1.199996e+00	1.270898e-07	1.199999e+00	1.200001e+00	2.589203e-04	1.200000e+00	
208	1.960000e-09	1.200000e+00	1.200000e+00	1.200000e+00	1.199998e+00	1.200000e+00	1.097114e-07	1.899727e-07	1.199996e+00	1.418470e-07	1.200000e+00	1.199999e+00	2.587600e-04	1.200000e+00	
209	1.970000e-09	1.200000e+00	1.200000e+00	1.200000e+00	1.199998e+00	1.200000e+00	4.284232e-07	7.987966e-08	1.199996e+00	1.274020e-07	1.199999e+00	1.200001e+00	2.589175e-04	1.200000e+00	
210	1.980000e-09	1.200000e+00	1.200000e+00	1.200000e+00	1.199998e+00	1.200000e+00	1.098269e-07	1.884709e-07	1.199996e+00	1.415452e-07	1.200000e+00	1.199999e+00	2.587628e-04	1.200000e+00	
211	1.990000e-09	1.200000e+00	1.200000e+00	1.200000e+00	1.199998e+00	1.200000e+00	4.283026e-07	8.135799e-08	1.199996e+00	1.276937e-07	1.199999e+00	1.200001e+00	2.589148e-04	1.200000e+00	
212	2.000000e-09	1.200000e+00	1.200000e+00	1.200000e+00	1.199998e+00	1.200000e+00	1.099525e-07	1.870156e-07	1.199996e+00	1.412632e-07	1.200000e+00	1.199999e+00	2.587655e-04	1.200000e+00	

                                                                                                              * spice from s1000s
                                                                                                              Transient Analysis  Fri Feb 20 21:56:54  2009
------------------------------------------------------------------------------------------------------------------------------------------------------------------------------------------------------------------------------------------------
Index   time            m.x1.m2#body    m.x1.m2#dbody   m.x1.m2#gate    m.x1.m2#sbody   n0              n1              n2              n3              n4              nseg_node_5     nseg_node_6     time            vdd             
------------------------------------------------------------------------------------------------------------------------------------------------------------------------------------------------------------------------------------------------
0	0.000000e+00	2.690256e-07	1.345128e-07	1.199996e+00	1.345128e-07	1.200000e+00	1.200000e+00	1.200000e+00	0.000000e+00	0.000000e+00	1.200000e+00	1.200000e+00	0.000000e+00	1.200000e+00	
1	1.000000e-13	1.216631e-05	1.541373e-05	1.200011e+00	3.786675e-06	1.199993e+00	1.200001e+00	1.200001e+00	3.902114e-05	3.902114e-05	1.200000e+00	1.200000e+00	1.000000e-13	1.200000e+00	
2	2.000000e-13	9.963358e-06	1.534298e-05	1.200020e+00	4.520347e-06	1.199987e+00	1.200002e+00	1.200002e+00	6.531544e-05	6.531544e-05	1.200000e+00	1.200000e+00	2.000000e-13	1.200000e+00	
3	4.000000e-13	6.909696e-06	1.141242e-05	1.200032e+00	4.149421e-06	1.199977e+00	1.200004e+00	1.200004e+00	1.079993e-04	1.079993e-04	1.199999e+00	1.200000e+00	4.000000e-13	1.200000e+00	
4	8.000000e-13	3.690712e-06	5.227432e-06	1.200039e+00	1.868048e-06	1.199959e+00	1.200010e+00	1.200010e+00	1.595253e-04	1.595253e-04	1.199997e+00	1.200000e+00	8.000000e-13	1.200000e+00	
5	1.600000e-12	9.992755e-07	1.711896e-06	1.200032e+00	6.659206e-07	1.199935e+00	1.200016e+00	1.200016e+00	2.027734e-04	2.027734e-04	1.199990e+00	1.200001e+00	1.600000e-12	1.200000e+00	
6	3.200000e-12	3.686916e-07	-9.480262e-08	1.200015e+00	6.527423e-08	1.199910e+00	1.200015e+00	1.200015e+00	2.199598e-04	2.199598e-04	1.199976e+00	1.200000e+00	3.200000e-12	1.200000e+00	
7	6.400000e-12	1.851030e-07	3.810827e-07	1.200000e+00	2.060891e-07	1.199890e+00	1.200000e+00	1.200000e+00	2.208150e-04	2.208150e-04	1.199954e+00	1.199989e+00	6.400000e-12	1.200000e+00	
8	1.280000e-11	3.535027e-07	-1.068374e-07	1.199972e+00	6.596715e-08	1.199877e+00	1.199972e+00	1.199972e+00	2.207290e-04	2.207290e-04	1.199926e+00	1.199960e+00	1.280000e-11	1.200000e+00	
9	2.280000e-11	1.869313e-07	3.778104e-07	1.199931e+00	2.025324e-07	1.199866e+00	1.199932e+00	1.199932e+00	2.213098e-04	2.213098e-04	1.199900e+00	1.199924e+00	2.280000e-11	1.200000e+00	
10	3.280000e-11	3.542235e-07	-1.006744e-07	1.199900e+00	6.971531e-08	1.199859e+00	1.199902e+00	1.199902e+00	2.216658e-04	2.216658e-04	1.199882e+00	1.199898e+00	3.280000e-11	1.200000e+00	
11	4.280000e-11	1.854575e-07	3.706881e-07	1.199878e+00	1.985056e-07	1.199854e+00	1.199881e+00	1.199881e+00	2.221592e-04	2.221592e-04	1.199869e+00	1.199879e+00	4.280000e-11	1.200000e+00	
12	5.280000e-11	3.533511e-07	-9.714955e-08	1.199862e+00	7.248361e-08	1.199850e+00	1.199865e+00	1.199865e+00	2.222174e-04	2.222174e-04	1.199859e+00	1.199865e+00	5.280000e-11	1.200000e+00	
13	6.280000e-11	1.854058e-07	3.658292e-07	1.199850e+00	1.953497e-07	1.199847e+00	1.199854e+00	1.199854e+00	2.225915e-04	2.225915e-04	1.199853e+00	1.199855e+00	6.280000e-11	1.200000e+00	
14	7.280000e-11	3.522867e-07	-9.400574e-08	1.199842e+00	7.500996e-08	1.199845e+00	1.199846e+00	1.199846e+00	2.225105e-04	2.225105e-04	1.199848e+00	1.199848e+00	7.280000e-11	1.200000e+00	
15	8.280000e-11	1.859474e-07	3.619348e-07	1.199836e+00	1.926279e-07	1.199844e+00	1.199840e+00	1.199840e+00	2.228153e-04	2.228153e-04	1.199844e+00	1.199843e+00	8.280000e-11	1.200000e+00	
16	9.280000e-11	3.511807e-07	-9.098753e-08	1.199831e+00	7.738540e-08	1.199843e+00	1.199835e+00	1.199835e+00	2.226656e-04	2.226656e-04	1.199841e+00	1.199839e+00	9.280000e-11	1.200000e+00	
17	1.028000e-10	1.867674e-07	3.585141e-07	1.199828e+00	1.901702e-07	1.199842e+00	1.199832e+00	1.199832e+00	2.229309e-04	2.229309e-04	1.199840e+00	1.199837e+00	1.028000e-10	1.200000e+00	
18	1.128000e-10	3.500744e-07	-8.802121e-08	1.199826e+00	7.964067e-08	1.199841e+00	1.199830e+00	1.199830e+00	2.227480e-04	2.227480e-04	1.199838e+00	1.199835e+00	1.128000e-10	1.200000e+00	
19	1.228000e-10	1.877168e-07	3.553362e-07	1.199824e+00	1.878936e-07	1.199841e+00	1.199829e+00	1.199829e+00	2.229902e-04	2.229902e-04	1.199837e+00	1.199833e+00	1.228000e-10	1.200000e+00	
20	1.328000e-10	3.489812e-07	-8.508192e-08	1.199823e+00	8.178980e-08	1.199840e+00	1.199827e+00	1.199827e+00	2.227922e-04	2.227922e-04	1.199836e+00	1.199832e+00	1.328000e-10	1.200000e+00	
21	1.428000e-10	1.887228e-07	3.522884e-07	1.199822e+00	1.857547e-07	1.199840e+00	1.199827e+00	1.199827e+00	2.230202e-04	2.230202e-04	1.199836e+00	1.199831e+00	1.428000e-10	1.200000e+00	
22	1.528000e-10	3.479045e-07	-8.216242e-08	1.199822e+00	8.384062e-08	1.199840e+00	1.199826e+00	1.199826e+00	2.228164e-04	2.228164e-04	1.199836e+00	1.199831e+00	1.528000e-10	1.200000e+00	
23	1.628000e-10	1.897497e-07	3.493164e-07	1.199821e+00	1.837303e-07	1.199840e+00	1.199825e+00	1.199825e+00	2.230350e-04	2.230350e-04	1.199835e+00	1.199830e+00	1.628000e-10	1.200000e+00	
24	1.728000e-10	3.468443e-07	-7.926253e-08	1.199821e+00	8.579831e-08	1.199840e+00	1.199825e+00	1.199825e+00	2.228299e-04	2.228299e-04	1.199835e+00	1.199830e+00	1.728000e-10	1.200000e+00	
25	1.828000e-10	1.907806e-07	3.463947e-07	1.199821e+00	1.818068e-07	1.199840e+00	1.199825e+00	1.199825e+00	2.230418e-04	2.230418e-04	1.199835e+00	1.199830e+00	1.828000e-10	1.200000e+00	
26	1.928000e-10	3.457989e-07	-7.638471e-08	1.199820e+00	8.766692e-08	1.199840e+00	1.199825e+00	1.199825e+00	2.228379e-04	2.228379e-04	1.199835e+00	1.199830e+00	1.928000e-10	1.200000e+00	
27	2.000000e-10	1.920084e-07	3.429578e-07	1.199820e+00	1.796304e-07	1.199840e+00	1.199825e+00	1.199825e+00	2.230437e-04	2.230437e-04	1.199835e+00	1.199830e+00	2.000000e-10	1.200000e+00	
28	2.010000e-10	2.762137e-07	1.513939e-07	1.199822e+00	1.405634e-07	1.200310e+00	1.199827e+00	1.199827e+00	2.231903e-04	2.231903e-04	1.199903e+00	1.199840e+00	2.010000e-10	1.200000e+00	
29	2.030000e-10	3.170926e-07	2.032837e-07	1.199832e+00	1.551712e-07	1.201374e+00	1.199843e+00	1.199843e+00	2.247188e-04	2.247188e-04	1.200161e+00	1.199893e+00	2.030000e-10	1.200000e+00	
30	2.070000e-10	3.935453e-07	3.313430e-07	1.199941e+00	1.987768e-07	1.202505e+00	1.199982e+00	1.199982e+00	2.339728e-04	2.339728e-04	1.200897e+00	1.200184e+00	2.070000e-10	1.200000e+00	
31	2.150000e-10	2.543744e-07	1.009336e-07	1.200445e+00	1.263221e-07	1.201747e+00	1.200515e+00	1.200515e+00	2.447681e-04	2.447681e-04	1.201410e+00	1.200820e+00	2.150000e-10	1.200000e+00	
32	2.250000e-10	-2.450041e-08	-3.158213e-07	1.200471e+00	-9.674780e-09	1.194963e+00	1.200417e+00	1.200417e+00	2.023848e-04	2.023848e-04	1.198735e+00	1.200086e+00	2.250000e-10	1.200000e+00	
33	2.350000e-10	-3.921434e-07	-8.580644e-07	1.197340e+00	-1.963001e-07	1.173173e+00	1.196902e+00	1.196902e+00	7.898980e-05	7.898980e-05	1.188054e+00	1.194674e+00	2.350000e-10	1.200000e+00	
34	2.450000e-10	5.919925e-07	-8.936597e-07	1.186903e+00	2.901076e-07	1.128875e+00	1.185674e+00	1.185674e+00	-1.566206e-04	-1.566206e-04	1.162745e+00	1.179567e+00	2.450000e-10	1.200000e+00	
35	2.550000e-10	2.673045e-07	-8.732139e-07	1.163894e+00	1.414109e-07	1.058235e+00	1.161423e+00	1.161423e+00	-4.360201e-04	-4.360201e-04	1.117759e+00	1.149345e+00	2.550000e-10	1.200000e+00	
36	2.650000e-10	-5.101865e-07	6.245983e-07	1.122286e+00	-2.578310e-07	9.451015e-01	1.118024e+00	1.118024e+00	-4.506999e-04	-4.506999e-04	1.044078e+00	1.097313e+00	2.650000e-10	1.200000e+00	
37	2.750000e-10	1.037612e-05	2.072054e-05	1.053181e+00	5.123129e-06	7.650248e-01	1.046125e+00	1.046125e+00	1.657974e-03	1.657974e-03	9.251247e-01	1.012013e+00	2.750000e-10	1.200000e+00	
38	2.850000e-10	9.695804e-05	1.588723e-04	9.470618e-01	4.800467e-05	5.298618e-01	9.359416e-01	9.359416e-01	1.788376e-02	1.788376e-02	7.550629e-01	8.834138e-01	2.850000e-10	1.200000e+00	
39	2.950000e-10	1.782323e-04	4.426189e-04	8.039155e-01	8.907398e-05	3.021803e-01	7.886270e-01	7.886269e-01	7.837958e-02	7.837958e-02	5.596746e-01	7.186308e-01	2.950000e-10	1.200000e+00	
40	3.050000e-10	1.071467e-04	1.088523e-03	6.445315e-01	5.405588e-05	1.708265e-01	6.261404e-01	6.261403e-01	2.678546e-01	2.678546e-01	3.939625e-01	5.499246e-01	3.050000e-10	1.200000e+00	
41	3.150000e-10	5.893781e-04	2.459427e-03	5.098456e-01	2.912236e-04	1.161004e-01	4.896360e-01	4.896359e-01	7.498209e-01	7.498209e-01	2.860602e-01	4.152915e-01	3.150000e-10	1.200000e+00	
42	3.250000e-10	-1.567656e-04	-1.096792e-04	3.784681e-01	-7.036979e-05	8.221284e-02	3.729119e-01	3.729119e-01	1.099858e+00	1.099858e+00	2.144938e-01	3.159368e-01	3.250000e-10	1.200000e+00	
43	3.260000e-10	2.795172e-06	1.798685e-04	3.682345e-01	-2.848110e-06	7.961985e-02	3.613108e-01	3.613107e-01	1.106253e+00	1.106253e+00	2.084504e-01	3.070636e-01	3.260000e-10	1.200000e+00	
44	3.280000e-10	2.292485e-05	2.698048e-04	3.467177e-01	1.461033e-05	7.431185e-02	3.390478e-01	3.390478e-01	1.121313e+00	1.121313e+00	1.965505e-01	2.895072e-01	3.280000e-10	1.200000e+00	
45	3.320000e-10	7.040534e-07	1.479686e-04	3.049148e-01	-2.265308e-06	6.507087e-02	2.988965e-01	2.988964e-01	1.149120e+00	1.149120e+00	1.741035e-01	2.563004e-01	3.320000e-10	1.200000e+00	
46	3.400000e-10	-8.868577e-06	6.148395e-05	2.354715e-01	-1.823893e-06	5.064916e-02	2.314592e-01	2.314592e-01	1.178562e+00	1.178562e+00	1.356259e-01	1.993415e-01	3.400000e-10	1.200000e+00	
47	3.500000e-10	-1.867642e-05	9.236608e-07	1.695326e-01	-1.182286e-05	3.650792e-02	1.670265e-01	1.670265e-01	1.191717e+00	1.191717e+00	9.842351e-02	1.443979e-01	3.500000e-10	1.200000e+00	
48	3.600000e-10	-1.014119e-05	8.288713e-06	1.220819e-01	-2.700666e-06	2.634278e-02	1.202737e-01	1.202737e-01	1.195828e+00	1.195828e+00	7.097515e-02	1.041003e-01	3.600000e-10	1.200000e+00	
49	3.700000e-10	-1.305269e-05	-9.788176e-06	8.775322e-02	-8.819328e-06	1.889372e-02	8.654022e-02	8.654021e-02	1.197565e+00	1.197565e+00	5.109672e-02	7.492848e-02	3.700000e-10	1.200000e+00	
50	3.800000e-10	-4.625490e-06	5.489800e-06	6.314678e-02	-1.290528e-07	1.363932e-02	6.223383e-02	6.223382e-02	1.198370e+00	1.198370e+00	3.675459e-02	5.389896e-02	3.800000e-10	1.200000e+00	
51	3.900000e-10	-8.338057e-06	-8.947588e-06	4.536786e-02	-6.275424e-06	9.813633e-03	4.476053e-02	4.476052e-02	1.198881e+00	1.198881e+00	2.645524e-02	3.876841e-02	3.900000e-10	1.200000e+00	
52	4.000000e-10	-1.211147e-06	5.730216e-06	3.266424e-02	1.404243e-06	7.117335e-03	3.219445e-02	3.219444e-02	1.199167e+00	1.199167e+00	1.904678e-02	2.789620e-02	4.000000e-10	1.200000e+00	
53	4.100000e-10	-5.638657e-06	-7.824822e-06	2.348300e-02	-4.751726e-06	5.152543e-03	2.317753e-02	2.317753e-02	1.199385e+00	1.199385e+00	1.373506e-02	2.008587e-02	4.100000e-10	1.200000e+00	
54	4.200000e-10	6.177600e-07	5.957482e-06	1.694112e-02	2.154427e-06	3.768429e-03	1.669654e-02	1.669654e-02	1.199510e+00	1.199510e+00	9.917328e-03	1.448020e-02	4.200000e-10	1.200000e+00	
55	4.300000e-10	-4.171172e-06	-7.058115e-06	1.220452e-02	-3.855551e-06	2.758610e-03	1.205154e-02	1.205154e-02	1.199615e+00	1.199615e+00	7.181867e-03	1.045569e-02	4.300000e-10	1.200000e+00	
56	4.400000e-10	1.547721e-06	6.010917e-06	8.841092e-03	2.464347e-06	2.047786e-03	8.712542e-03	8.712541e-03	1.199674e+00	1.199674e+00	5.216366e-03	7.568873e-03	4.400000e-10	1.200000e+00	
57	4.500000e-10	-3.368373e-06	-6.539334e-06	6.398126e-03	-3.302153e-06	1.528214e-03	6.322178e-03	6.322177e-03	1.199728e+00	1.199728e+00	3.808467e-03	5.496893e-03	4.500000e-10	1.200000e+00	
58	4.600000e-10	1.997023e-06	5.941295e-06	4.671068e-03	2.542971e-06	1.163080e-03	4.602673e-03	4.602672e-03	1.199756e+00	1.199756e+00	2.796948e-03	4.011124e-03	4.600000e-10	1.200000e+00	
59	4.700000e-10	-2.916653e-06	-6.164121e-06	3.410469e-03	-2.933907e-06	8.956176e-04	3.373334e-03	3.373334e-03	1.199785e+00	1.199785e+00	2.072557e-03	2.944796e-03	4.700000e-10	1.200000e+00	
60	4.800000e-10	2.194335e-06	5.804475e-06	2.524823e-03	2.504358e-06	7.080678e-04	2.487875e-03	2.487874e-03	1.199797e+00	1.199797e+00	1.552093e-03	2.180354e-03	4.800000e-10	1.200000e+00	
61	4.900000e-10	-2.648070e-06	-5.868222e-06	1.873685e-03	-2.666200e-06	5.703214e-04	1.855969e-03	1.855969e-03	1.199814e+00	1.199814e+00	1.179442e-03	1.631675e-03	4.900000e-10	1.200000e+00	
62	5.000000e-10	2.261089e-06	5.633954e-06	1.420250e-03	2.408886e-06	4.740153e-04	1.399902e-03	1.399902e-03	1.199818e+00	1.199818e+00	9.116684e-04	1.238436e-03	5.000000e-10	1.200000e+00	
63	5.100000e-10	-2.474759e-06	-5.616327e-06	1.083399e-03	-2.454557e-06	4.030339e-04	1.075274e-03	1.075274e-03	1.199828e+00	1.199828e+00	7.199822e-04	9.561304e-04	5.100000e-10	1.200000e+00	
64	5.200000e-10	2.260925e-06	5.448228e-06	8.517362e-04	2.287998e-06	3.536106e-04	8.402597e-04	8.402597e-04	1.199829e+00	1.199829e+00	5.822205e-04	7.538688e-04	5.200000e-10	1.200000e+00	
65	5.300000e-10	-2.351295e-06	-5.389858e-06	6.771013e-04	-2.275788e-06	3.170021e-04	6.736121e-04	6.736120e-04	1.199836e+00	1.199836e+00	4.836258e-04	6.086164e-04	5.300000e-10	1.200000e+00	
66	5.400000e-10	2.227025e-06	5.257255e-06	5.590702e-04	2.157896e-06	2.916665e-04	5.524146e-04	5.524146e-04	1.199834e+00	1.199834e+00	4.127517e-04	5.045959e-04	5.400000e-10	1.200000e+00	
67	5.500000e-10	-2.254370e-06	-5.179261e-06	4.682857e-04	-2.117797e-06	2.727583e-04	4.669542e-04	4.669542e-04	1.199840e+00	1.199840e+00	3.620415e-04	4.298554e-04	5.500000e-10	1.200000e+00	
68	5.600000e-10	2.176671e-06	5.066360e-06	4.083590e-04	2.026825e-06	2.597967e-04	4.043801e-04	4.043800e-04	1.199837e+00	1.199837e+00	3.255784e-04	3.763663e-04	5.600000e-10	1.200000e+00	
69	5.700000e-10	-2.172087e-06	-4.979697e-06	3.610133e-04	-1.974215e-06	2.500056e-04	3.606194e-04	3.606194e-04	1.199842e+00	1.199842e+00	2.994978e-04	3.379031e-04	5.700000e-10	1.200000e+00	
70	5.800000e-10	2.118874e-06	4.878393e-06	3.307100e-04	1.898901e-06	2.433989e-04	3.282578e-04	3.282578e-04	1.199839e+00	1.199839e+00	2.807377e-04	3.104032e-04	5.800000e-10	1.200000e+00	
71	5.900000e-10	-2.098403e-06	-4.788737e-06	3.059406e-04	-1.841624e-06	2.383054e-04	3.058982e-04	3.058981e-04	1.199843e+00	1.199843e+00	2.673250e-04	2.906052e-04	5.900000e-10	1.200000e+00	
72	6.000000e-10	2.058340e-06	4.694879e-06	2.906741e-04	1.776097e-06	2.349612e-04	2.891212e-04	2.891212e-04	1.199839e+00	1.199839e+00	2.576725e-04	2.764706e-04	6.000000e-10	1.200000e+00	
73	6.100000e-10	-2.030257e-06	-4.605164e-06	2.776931e-04	-1.718112e-06	2.322894e-04	2.777322e-04	2.777322e-04	1.199843e+00	1.199843e+00	2.507752e-04	2.662768e-04	6.100000e-10	1.200000e+00	
74	6.200000e-10	1.997527e-06	4.516617e-06	2.700093e-04	1.659273e-06	2.306190e-04	2.690052e-04	2.690052e-04	1.199840e+00	1.199840e+00	2.458082e-04	2.590147e-04	6.200000e-10	1.200000e+00	
75	6.300000e-10	-1.966102e-06	-4.428349e-06	2.632239e-04	-1.602540e-06	2.291966e-04	2.632302e-04	2.632302e-04	1.199844e+00	1.199844e+00	2.422619e-04	2.537636e-04	6.300000e-10	1.200000e+00	
76	6.400000e-10	1.937717e-06	4.344007e-06	2.593267e-04	1.548718e-06	2.283839e-04	2.586697e-04	2.586697e-04	1.199840e+00	1.199840e+00	2.397056e-04	2.500346e-04	6.400000e-10	1.200000e+00	
77	6.500000e-10	-1.905145e-06	-4.257947e-06	2.558268e-04	-1.494164e-06	2.276069e-04	2.557601e-04	2.557601e-04	1.199844e+00	1.199844e+00	2.378825e-04	2.473278e-04	6.500000e-10	1.200000e+00	
78	6.600000e-10	1.879567e-06	4.177220e-06	2.537923e-04	1.444419e-06	2.272330e-04	2.533624e-04	2.533623e-04	1.199840e+00	1.199840e+00	2.365666e-04	2.454146e-04	6.600000e-10	1.200000e+00	
79	6.700000e-10	-1.846971e-06	-4.093733e-06	2.520555e-04	-1.392445e-06	2.267903e-04	2.519095e-04	2.519095e-04	1.199844e+00	1.199844e+00	2.356297e-04	2.440179e-04	6.700000e-10	1.200000e+00	
80	6.800000e-10	1.823399e-06	4.016288e-06	2.509167e-04	1.346218e-06	2.266399e-04	2.506393e-04	2.506393e-04	1.199840e+00	1.199840e+00	2.349520e-04	2.430376e-04	6.800000e-10	1.200000e+00	
81	6.900000e-10	-1.791349e-06	-3.935532e-06	2.501401e-04	-1.296952e-06	2.263712e-04	2.499227e-04	2.499227e-04	1.199844e+00	1.199844e+00	2.344708e-04	2.423158e-04	6.900000e-10	1.200000e+00	
82	7.000000e-10	1.769359e-06	3.861165e-06	2.494166e-04	1.253878e-06	2.263340e-04	2.492440e-04	2.492440e-04	1.199840e+00	1.199840e+00	2.341215e-04	2.418144e-04	7.000000e-10	1.200000e+00	
83	7.100000e-10	-1.738131e-06	-3.783185e-06	2.491725e-04	-1.207312e-06	2.261564e-04	2.488960e-04	2.488960e-04	1.199844e+00	1.199844e+00	2.338747e-04	2.414406e-04	7.100000e-10	1.200000e+00	
84	7.200000e-10	1.717490e-06	3.711752e-06	2.486303e-04	1.167130e-06	2.261759e-04	2.485303e-04	2.485303e-04	1.199841e+00	1.199841e+00	2.336944e-04	2.411849e-04	7.200000e-10	1.200000e+00	
85	7.300000e-10	-1.687212e-06	-3.636530e-06	2.486870e-04	-1.123188e-06	2.260467e-04	2.483643e-04	2.483643e-04	1.199844e+00	1.199844e+00	2.335679e-04	2.409907e-04	7.300000e-10	1.200000e+00	
86	7.400000e-10	1.667782e-06	3.567917e-06	2.482157e-04	1.085694e-06	2.260938e-04	2.481663e-04	2.481663e-04	1.199841e+00	1.199841e+00	2.334747e-04	2.408609e-04	7.400000e-10	1.200000e+00	
87	7.500000e-10	-1.638501e-06	-3.495404e-06	2.484454e-04	-1.044268e-06	2.259910e-04	2.480882e-04	2.480881e-04	1.199844e+00	1.199844e+00	2.334101e-04	2.407595e-04	7.500000e-10	1.200000e+00	
88	7.600000e-10	1.620193e-06	3.429510e-06	2.479960e-04	1.009288e-06	2.260509e-04	2.479814e-04	2.479814e-04	1.199841e+00	1.199841e+00	2.333617e-04	2.406940e-04	7.600000e-10	1.200000e+00	
89	7.700000e-10	-1.591915e-06	-3.359637e-06	2.483262e-04	-9.702540e-07	2.259630e-04	2.479441e-04	2.479441e-04	1.199844e+00	1.199844e+00	2.333290e-04	2.406407e-04	7.700000e-10	1.200000e+00	
90	7.800000e-10	1.574663e-06	3.296366e-06	2.478792e-04	9.376348e-07	2.260282e-04	2.478880e-04	2.478880e-04	1.199841e+00	1.199841e+00	2.333036e-04	2.406080e-04	7.800000e-10	1.200000e+00	
91	7.900000e-10	-1.547371e-06	-3.229054e-06	2.482675e-04	-9.008677e-07	2.259492e-04	2.478684e-04	2.478684e-04	1.199843e+00	1.199843e+00	2.332872e-04	2.405798e-04	7.900000e-10	1.200000e+00	
92	8.000000e-10	1.531124e-06	3.168315e-06	2.478173e-04	8.704681e-07	2.260159e-04	2.478413e-04	2.478413e-04	1.199841e+00	1.199841e+00	2.332738e-04	2.405636e-04	8.000000e-10	1.200000e+00	
93	8.100000e-10	-1.504790e-06	-3.103481e-06	2.482383e-04	-8.358424e-07	2.259427e-04	2.478284e-04	2.478284e-04	1.199843e+00	1.199843e+00	2.332657e-04	2.405485e-04	8.100000e-10	1.200000e+00	
94	8.200000e-10	1.489501e-06	3.045183e-06	2.477853e-04	8.075309e-07	2.260090e-04	2.478182e-04	2.478182e-04	1.199841e+00	1.199841e+00	2.332584e-04	2.405407e-04	8.200000e-10	1.200000e+00	
95	8.300000e-10	-1.464092e-06	-2.982741e-06	2.482228e-04	-7.749251e-07	2.259400e-04	2.478070e-04	2.478070e-04	1.199843e+00	1.199843e+00	2.332546e-04	2.405325e-04	8.300000e-10	1.200000e+00	
96	8.400000e-10	1.449717e-06	2.926795e-06	2.477699e-04	7.485784e-07	2.260049e-04	2.478071e-04	2.478071e-04	1.199841e+00	1.199841e+00	2.332506e-04	2.405289e-04	8.400000e-10	1.200000e+00	
97	8.500000e-10	-1.425196e-06	-2.866660e-06	2.482134e-04	-7.178755e-07	2.259391e-04	2.477954e-04	2.477954e-04	1.199843e+00	1.199843e+00	2.332489e-04	2.405243e-04	8.500000e-10	1.200000e+00	
98	8.600000e-10	1.411696e-06	2.812979e-06	2.477637e-04	6.933775e-07	2.260022e-04	2.478018e-04	2.478018e-04	1.199841e+00	1.199841e+00	2.332465e-04	2.405228e-04	8.600000e-10	1.200000e+00	
99	8.700000e-10	-1.388025e-06	-2.755065e-06	2.482065e-04	-6.644661e-07	2.259392e-04	2.477890e-04	2.477890e-04	1.199843e+00	1.199843e+00	2.332459e-04	2.405202e-04	8.700000e-10	1.200000e+00	
100	8.800000e-10	1.375360e-06	2.703564e-06	2.477629e-04	6.417068e-07	2.260003e-04	2.477995e-04	2.477995e-04	1.199841e+00	1.199841e+00	2.332444e-04	2.405196e-04	8.800000e-10	1.200000e+00	
101	8.900000e-10	-1.352503e-06	-2.647788e-06	2.482002e-04	-6.144809e-07	2.259397e-04	2.477854e-04	2.477854e-04	1.199843e+00	1.199843e+00	2.332444e-04	2.405181e-04	8.900000e-10	1.200000e+00	
102	9.000000e-10	1.340635e-06	2.598385e-06	2.477654e-04	5.933568e-07	2.259989e-04	2.477985e-04	2.477985e-04	1.199841e+00	1.199841e+00	2.332434e-04	2.405179e-04	9.000000e-10	1.200000e+00	
103	9.100000e-10	-1.318556e-06	-2.544665e-06	2.481940e-04	-5.677159e-07	2.259405e-04	2.477834e-04	2.477834e-04	1.199843e+00	1.199843e+00	2.332436e-04	2.405170e-04	9.100000e-10	1.200000e+00	
104	9.200000e-10	1.307448e-06	2.497278e-06	2.477699e-04	5.481290e-07	2.259977e-04	2.477981e-04	2.477981e-04	1.199841e+00	1.199841e+00	2.332428e-04	2.405170e-04	9.200000e-10	1.200000e+00	
105	9.300000e-10	-1.286112e-06	-2.445536e-06	2.481874e-04	-5.239780e-07	2.259413e-04	2.477823e-04	2.477823e-04	1.199843e+00	1.199843e+00	2.332432e-04	2.405165e-04	9.300000e-10	1.200000e+00	
106	9.400000e-10	1.275729e-06	2.400088e-06	2.477756e-04	5.058358e-07	2.259966e-04	2.477980e-04	2.477980e-04	1.199841e+00	1.199841e+00	2.332426e-04	2.405165e-04	9.400000e-10	1.200000e+00	
107	9.500000e-10	-1.255101e-06	-2.350246e-06	2.481806e-04	-4.830851e-07	2.259422e-04	2.477817e-04	2.477816e-04	1.199843e+00	1.199843e+00	2.332430e-04	2.405162e-04	9.500000e-10	1.200000e+00	
108	9.600000e-10	1.245410e-06	2.306661e-06	2.477820e-04	4.663002e-07	2.259956e-04	2.477980e-04	2.477979e-04	1.199841e+00	1.199841e+00	2.332424e-04	2.405163e-04	9.600000e-10	1.200000e+00	
109	9.700000e-10	-1.225458e-06	-2.258646e-06	2.481735e-04	-4.448651e-07	2.259431e-04	2.477813e-04	2.477813e-04	1.199843e+00	1.199843e+00	2.332429e-04	2.405161e-04	9.700000e-10	1.200000e+00	
110	9.800000e-10	1.216426e-06	2.216851e-06	2.477890e-04	4.293551e-07	2.259946e-04	2.477979e-04	2.477979e-04	1.199841e+00	1.199841e+00	2.332424e-04	2.405161e-04	9.800000e-10	1.200000e+00	
111	9.900000e-10	-1.197118e-06	-2.170591e-06	2.481663e-04	-4.091556e-07	2.259440e-04	2.477812e-04	2.477812e-04	1.199843e+00	1.199843e+00	2.332428e-04	2.405161e-04	9.900000e-10	1.200000e+00	
112	1.000000e-09	1.188715e-06	2.130517e-06	2.477961e-04	3.948431e-07	2.259938e-04	2.477979e-04	2.477978e-04	1.199841e+00	1.199841e+00	2.332423e-04	2.405160e-04	1.000000e-09	1.200000e+00	
113	1.010000e-09	-1.170019e-06	-2.085943e-06	2.481589e-04	-3.758038e-07	2.259448e-04	2.477812e-04	2.477812e-04	1.199843e+00	1.199843e+00	2.332428e-04	2.405160e-04	1.010000e-09	1.200000e+00	
114	1.020000e-09	1.162215e-06	2.047521e-06	2.478034e-04	3.626154e-07	2.259929e-04	2.477978e-04	2.477977e-04	1.199841e+00	1.199841e+00	2.332423e-04	2.405160e-04	1.020000e-09	1.200000e+00	
115	1.030000e-09	-1.144105e-06	-2.004567e-06	2.481516e-04	-3.446653e-07	2.259456e-04	2.477813e-04	2.477812e-04	1.199843e+00	1.199843e+00	2.332427e-04	2.405160e-04	1.030000e-09	1.200000e+00	
116	1.040000e-09	1.136871e-06	1.967733e-06	2.478108e-04	3.325322e-07	2.259921e-04	2.477976e-04	2.477976e-04	1.199841e+00	1.199841e+00	2.332423e-04	2.405160e-04	1.040000e-09	1.200000e+00	
117	1.050000e-09	-1.119318e-06	-1.926335e-06	2.481442e-04	-3.156045e-07	2.259464e-04	2.477814e-04	2.477814e-04	1.199843e+00	1.199843e+00	2.332427e-04	2.405160e-04	1.050000e-09	1.200000e+00	
118	1.060000e-09	1.112628e-06	1.891026e-06	2.478181e-04	3.044618e-07	2.259913e-04	2.477975e-04	2.477975e-04	1.199841e+00	1.199841e+00	2.332423e-04	2.405160e-04	1.060000e-09	1.200000e+00	
119	1.070000e-09	-1.095606e-06	-1.851123e-06	2.481370e-04	-2.884934e-07	2.259472e-04	2.477815e-04	2.477815e-04	1.199843e+00	1.199843e+00	2.332427e-04	2.405160e-04	1.070000e-09	1.200000e+00	
120	1.080000e-09	1.089434e-06	1.817279e-06	2.478253e-04	2.782800e-07	2.259906e-04	2.477973e-04	2.477973e-04	1.199841e+00	1.199841e+00	2.332423e-04	2.405159e-04	1.080000e-09	1.200000e+00	
121	1.090000e-09	-1.072917e-06	-1.778812e-06	2.481298e-04	-2.632117e-07	2.259479e-04	2.477817e-04	2.477817e-04	1.199843e+00	1.199843e+00	2.332427e-04	2.405160e-04	1.090000e-09	1.200000e+00	
122	1.100000e-09	1.067239e-06	1.746376e-06	2.478324e-04	2.538700e-07	2.259899e-04	2.477971e-04	2.477971e-04	1.199841e+00	1.199841e+00	2.332423e-04	2.405159e-04	1.100000e-09	1.200000e+00	
123	1.110000e-09	-1.051204e-06	-1.709289e-06	2.481228e-04	-2.396460e-07	2.259486e-04	2.477819e-04	2.477819e-04	1.199843e+00	1.199843e+00	2.332427e-04	2.405160e-04	1.110000e-09	1.200000e+00	
124	1.120000e-09	1.045997e-06	1.678205e-06	2.478393e-04	2.311219e-07	2.259892e-04	2.477969e-04	2.477969e-04	1.199841e+00	1.199841e+00	2.332424e-04	2.405159e-04	1.120000e-09	1.200000e+00	
125	1.130000e-09	-1.030421e-06	-1.642443e-06	2.481159e-04	-2.176896e-07	2.259493e-04	2.477821e-04	2.477821e-04	1.199843e+00	1.199843e+00	2.332427e-04	2.405160e-04	1.130000e-09	1.200000e+00	
126	1.140000e-09	1.025662e-06	1.612659e-06	2.478461e-04	2.099322e-07	2.259885e-04	2.477967e-04	2.477967e-04	1.199841e+00	1.199841e+00	2.332424e-04	2.405159e-04	1.140000e-09	1.200000e+00	
127	1.150000e-09	-1.010523e-06	-1.578170e-06	2.481092e-04	-1.972424e-07	2.259499e-04	2.477823e-04	2.477823e-04	1.199843e+00	1.199843e+00	2.332427e-04	2.405160e-04	1.150000e-09	1.200000e+00	
128	1.160000e-09	1.006191e-06	1.549634e-06	2.478528e-04	1.902037e-07	2.259879e-04	2.477965e-04	2.477965e-04	1.199841e+00	1.199841e+00	2.332424e-04	2.405159e-04	1.160000e-09	1.200000e+00	
129	1.170000e-09	-9.914694e-07	-1.516369e-06	2.481026e-04	-1.782098e-07	2.259506e-04	2.477825e-04	2.477825e-04	1.199843e+00	1.199843e+00	2.332427e-04	2.405160e-04	1.170000e-09	1.200000e+00	
130	1.180000e-09	9.875442e-07	1.489032e-06	2.478592e-04	1.718449e-07	2.259873e-04	2.477963e-04	2.477962e-04	1.199841e+00	1.199841e+00	2.332424e-04	2.405159e-04	1.180000e-09	1.200000e+00	
131	1.190000e-09	-9.732200e-07	-1.456943e-06	2.480963e-04	-1.605032e-07	2.259512e-04	2.477827e-04	2.477827e-04	1.199843e+00	1.199843e+00	2.332427e-04	2.405160e-04	1.190000e-09	1.200000e+00	
132	1.200000e-09	9.696828e-07	1.430759e-06	2.478655e-04	1.547697e-07	2.259867e-04	2.477960e-04	2.477960e-04	1.199841e+00	1.199841e+00	2.332424e-04	2.405159e-04	1.200000e-09	1.200000e+00	
133	1.210000e-09	-9.557373e-07	-1.399800e-06	2.480901e-04	-1.440392e-07	2.259517e-04	2.477830e-04	2.477829e-04	1.199843e+00	1.199843e+00	2.332427e-04	2.405160e-04	1.210000e-09	1.200000e+00	
134	1.220000e-09	9.525697e-07	1.374723e-06	2.478716e-04	1.388972e-07	2.259861e-04	2.477958e-04	2.477958e-04	1.199841e+00	1.199841e+00	2.332424e-04	2.405159e-04	1.220000e-09	1.200000e+00	
135	1.230000e-09	-9.389853e-07	-1.344849e-06	2.480841e-04	-1.287391e-07	2.259523e-04	2.477832e-04	2.477831e-04	1.199843e+00	1.199843e+00	2.332427e-04	2.405160e-04	1.230000e-09	1.200000e+00	
136	1.240000e-09	9.361702e-07	1.320837e-06	2.478775e-04	1.241513e-07	2.259855e-04	2.477956e-04	2.477956e-04	1.199841e+00	1.199841e+00	2.332424e-04	2.405159e-04	1.240000e-09	1.200000e+00	
137	1.250000e-09	-9.229298e-07	-1.292006e-06	2.480782e-04	-1.145294e-07	2.259529e-04	2.477834e-04	2.477834e-04	1.199843e+00	1.199843e+00	2.332427e-04	2.405160e-04	1.250000e-09	1.200000e+00	
138	1.260000e-09	9.204508e-07	1.269017e-06	2.478832e-04	1.104604e-07	2.259850e-04	2.477954e-04	2.477954e-04	1.199841e+00	1.199841e+00	2.332424e-04	2.405159e-04	1.260000e-09	1.200000e+00	
139	1.270000e-09	-9.075386e-07	-1.241189e-06	2.480726e-04	-1.013407e-07	2.259534e-04	2.477836e-04	2.477836e-04	1.199843e+00	1.199843e+00	2.332427e-04	2.405160e-04	1.270000e-09	1.200000e+00	
140	1.280000e-09	9.053799e-07	1.219183e-06	2.478888e-04	9.775752e-08	2.259845e-04	2.477952e-04	2.477952e-04	1.199842e+00	1.199842e+00	2.332424e-04	2.405159e-04	1.280000e-09	1.200000e+00	
141	1.290000e-09	-8.927805e-07	-1.192319e-06	2.480671e-04	-8.910780e-08	2.259539e-04	2.477838e-04	2.477837e-04	1.199843e+00	1.199843e+00	2.332427e-04	2.405160e-04	1.290000e-09	1.200000e+00	
142	1.300000e-09	8.909274e-07	1.171257e-06	2.478942e-04	8.597934e-08	2.259840e-04	2.477950e-04	2.477950e-04	1.199842e+00	1.199842e+00	2.332424e-04	2.405159e-04	1.300000e-09	1.200000e+00	
143	1.310000e-09	-8.786264e-07	-1.145320e-06	2.480618e-04	-7.776953e-08	2.259544e-04	2.477840e-04	2.477839e-04	1.199843e+00	1.199843e+00	2.332426e-04	2.405160e-04	1.310000e-09	1.200000e+00	
144	1.320000e-09	8.770645e-07	1.125166e-06	2.478994e-04	7.506655e-08	2.259835e-04	2.477949e-04	2.477948e-04	1.199842e+00	1.199842e+00	2.332424e-04	2.405159e-04	1.320000e-09	1.200000e+00	
145	1.330000e-09	-8.650481e-07	-1.100119e-06	2.480567e-04	-6.726832e-08	2.259549e-04	2.477841e-04	2.477841e-04	1.199843e+00	1.199843e+00	2.332426e-04	2.405160e-04	1.330000e-09	1.200000e+00	
146	1.340000e-09	8.637642e-07	1.080839e-06	2.479044e-04	6.496342e-08	2.259830e-04	2.477947e-04	2.477947e-04	1.199842e+00	1.199842e+00	2.332424e-04	2.405159e-04	1.340000e-09	1.200000e+00	
147	1.350000e-09	-8.520191e-07	-1.056648e-06	2.480517e-04	-5.755017e-08	2.259553e-04	2.477843e-04	2.477843e-04	1.199843e+00	1.199843e+00	2.332426e-04	2.405160e-04	1.350000e-09	1.200000e+00	
148	1.360000e-09	8.510004e-07	1.038207e-06	2.479093e-04	5.561761e-08	2.259826e-04	2.477945e-04	2.477945e-04	1.199842e+00	1.199842e+00	2.332424e-04	2.405159e-04	1.360000e-09	1.200000e+00	
149	1.370000e-09	-8.395143e-07	-1.014839e-06	2.480469e-04	-4.856436e-08	2.259558e-04	2.477845e-04	2.477845e-04	1.199843e+00	1.199843e+00	2.332426e-04	2.405160e-04	1.370000e-09	1.200000e+00	
150	1.380000e-09	8.387484e-07	9.972052e-07	2.479141e-04	4.697987e-08	2.259822e-04	2.477943e-04	2.477943e-04	1.199842e+00	1.199842e+00	2.332424e-04	2.405159e-04	1.380000e-09	1.200000e+00	
151	1.390000e-09	-8.275094e-07	-9.746290e-07	2.480422e-04	-4.026321e-08	2.259562e-04	2.477846e-04	2.477846e-04	1.199843e+00	1.199843e+00	2.332426e-04	2.405160e-04	1.390000e-09	1.200000e+00	
152	1.400000e-09	8.269850e-07	9.577709e-07	2.479186e-04	3.900410e-08	2.259817e-04	2.477942e-04	2.477942e-04	1.199842e+00	1.199842e+00	2.332424e-04	2.405159e-04	1.400000e-09	1.200000e+00	
153	1.410000e-09	-8.159817e-07	-9.359554e-07	2.480377e-04	-3.260194e-08	2.259566e-04	2.477848e-04	2.477848e-04	1.199843e+00	1.199843e+00	2.332426e-04	2.405160e-04	1.410000e-09	1.200000e+00	
154	1.420000e-09	8.156874e-07	9.198430e-07	2.479231e-04	3.164682e-08	2.259813e-04	2.477940e-04	2.477940e-04	1.199842e+00	1.199842e+00	2.332424e-04	2.405159e-04	1.420000e-09	1.200000e+00	
155	1.430000e-09	-8.049091e-07	-8.987590e-07	2.480334e-04	-2.553850e-08	2.259570e-04	2.477850e-04	2.477850e-04	1.199843e+00	1.199843e+00	2.332426e-04	2.405160e-04	1.430000e-09	1.200000e+00	
156	1.440000e-09	8.048347e-07	8.833643e-07	2.479274e-04	2.486740e-08	2.259809e-04	2.477939e-04	2.477938e-04	1.199842e+00	1.199842e+00	2.332424e-04	2.405160e-04	1.440000e-09	1.200000e+00	
157	1.450000e-09	-7.942711e-07	-8.629836e-07	2.480292e-04	-1.903351e-08	2.259574e-04	2.477851e-04	2.477851e-04	1.199843e+00	1.199843e+00	2.332426e-04	2.405160e-04	1.450000e-09	1.200000e+00	
158	1.460000e-09	7.944065e-07	8.482785e-07	2.479315e-04	1.862756e-08	2.259806e-04	2.477937e-04	2.477937e-04	1.199842e+00	1.199842e+00	2.332424e-04	2.405160e-04	1.460000e-09	1.200000e+00	
159	1.470000e-09	-7.840479e-07	-8.285744e-07	2.480251e-04	-1.304990e-08	2.259577e-04	2.477853e-04	2.477852e-04	1.199843e+00	1.199843e+00	2.332426e-04	2.405160e-04	1.470000e-09	1.200000e+00	
160	1.480000e-09	7.843835e-07	8.145327e-07	2.479355e-04	1.289148e-08	2.259802e-04	2.477936e-04	2.477936e-04	1.199842e+00	1.199842e+00	2.332424e-04	2.405160e-04	1.480000e-09	1.200000e+00	
161	1.490000e-09	-7.742206e-07	-7.954790e-07	2.480211e-04	-7.552915e-09	2.259581e-04	2.477854e-04	2.477854e-04	1.199843e+00	1.199843e+00	2.332426e-04	2.405160e-04	1.490000e-09	1.200000e+00	
162	1.500000e-09	7.747474e-07	7.820750e-07	2.479394e-04	7.625427e-09	2.259798e-04	2.477934e-04	2.477934e-04	1.199842e+00	1.199842e+00	2.332424e-04	2.405160e-04	1.500000e-09	1.200000e+00	
163	1.510000e-09	-7.647713e-07	-7.636465e-07	2.480173e-04	-2.509887e-09	2.259585e-04	2.477855e-04	2.477855e-04	1.199842e+00	1.199842e+00	2.332426e-04	2.405160e-04	1.510000e-09	1.200000e+00	
164	1.520000e-09	7.654806e-07	7.508560e-07	2.479432e-04	2.797822e-09	2.259795e-04	2.477933e-04	2.477933e-04	1.199842e+00	1.199842e+00	2.332424e-04	2.405160e-04	1.520000e-09	1.200000e+00	
165	1.530000e-09	-7.556830e-07	-7.330297e-07	2.480136e-04	2.109654e-09	2.259588e-04	2.477857e-04	2.477857e-04	1.199842e+00	1.199842e+00	2.332426e-04	2.405160e-04	1.530000e-09	1.200000e+00	
166	1.540000e-09	7.565668e-07	7.208296e-07	2.479468e-04	-1.620826e-09	2.259792e-04	2.477932e-04	2.477932e-04	1.199842e+00	1.199842e+00	2.332424e-04	2.405160e-04	1.540000e-09	1.200000e+00	
167	1.550000e-09	-7.469396e-07	-7.035821e-07	2.480101e-04	6.334394e-09	2.259591e-04	2.477858e-04	2.477858e-04	1.199842e+00	1.199842e+00	2.332426e-04	2.405160e-04	1.550000e-09	1.200000e+00	
168	1.560000e-09	7.479899e-07	6.919493e-07	2.479503e-04	-5.658423e-09	2.259788e-04	2.477930e-04	2.477930e-04	1.199842e+00	1.199842e+00	2.332424e-04	2.405160e-04	1.560000e-09	1.200000e+00	
169	1.570000e-09	-7.385254e-07	-6.752584e-07	2.480066e-04	1.019132e-08	2.259594e-04	2.477859e-04	2.477859e-04	1.199842e+00	1.199842e+00	2.332426e-04	2.405160e-04	1.570000e-09	1.200000e+00	
170	1.580000e-09	7.397349e-07	6.641718e-07	2.479537e-04	-9.340976e-09	2.259785e-04	2.477929e-04	2.477929e-04	1.199842e+00	1.199842e+00	2.332424e-04	2.405160e-04	1.580000e-09	1.200000e+00	
171	1.590000e-09	-7.304259e-07	-6.480162e-07	2.480033e-04	1.370564e-08	2.259597e-04	2.477860e-04	2.477860e-04	1.199842e+00	1.199842e+00	2.332426e-04	2.405160e-04	1.590000e-09	1.200000e+00	
172	1.600000e-09	7.317873e-07	6.374546e-07	2.479570e-04	-1.269296e-08	2.259782e-04	2.477928e-04	2.477928e-04	1.199842e+00	1.199842e+00	2.332424e-04	2.405160e-04	1.600000e-09	1.200000e+00	
173	1.610000e-09	-7.226269e-07	-6.218144e-07	2.480000e-04	1.690098e-08	2.259600e-04	2.477862e-04	2.477861e-04	1.199842e+00	1.199842e+00	2.332426e-04	2.405160e-04	1.610000e-09	1.200000e+00	
174	1.620000e-09	7.241335e-07	6.117582e-07	2.479602e-04	-1.573719e-08	2.259779e-04	2.477927e-04	2.477927e-04	1.199842e+00	1.199842e+00	2.332425e-04	2.405160e-04	1.620000e-09	1.200000e+00	
175	1.630000e-09	-7.151151e-07	-5.966133e-07	2.479969e-04	1.979952e-08	2.259603e-04	2.477863e-04	2.477863e-04	1.199842e+00	1.199842e+00	2.332426e-04	2.405160e-04	1.630000e-09	1.200000e+00	
176	1.640000e-09	7.167604e-07	5.870430e-07	2.479632e-04	-1.849523e-08	2.259777e-04	2.477926e-04	2.477926e-04	1.199842e+00	1.199842e+00	2.332425e-04	2.405160e-04	1.640000e-09	1.200000e+00	
177	1.650000e-09	-7.078777e-07	-5.723749e-07	2.479939e-04	2.242203e-08	2.259606e-04	2.477864e-04	2.477864e-04	1.199842e+00	1.199842e+00	2.332426e-04	2.405160e-04	1.650000e-09	1.200000e+00	
178	1.660000e-09	7.096558e-07	5.632724e-07	2.479662e-04	-2.098708e-08	2.259774e-04	2.477925e-04	2.477925e-04	1.199842e+00	1.199842e+00	2.332425e-04	2.405160e-04	1.660000e-09	1.200000e+00	
179	1.670000e-09	-7.009027e-07	-5.490630e-07	2.479910e-04	2.478796e-08	2.259609e-04	2.477865e-04	2.477865e-04	1.199842e+00	1.199842e+00	2.332426e-04	2.405160e-04	1.670000e-09	1.200000e+00	
180	1.680000e-09	7.028074e-07	5.404100e-07	2.479691e-04	-2.323169e-08	2.259771e-04	2.477924e-04	2.477924e-04	1.199842e+00	1.199842e+00	2.332425e-04	2.405160e-04	1.680000e-09	1.200000e+00	
181	1.690000e-09	-6.941782e-07	-5.266415e-07	2.479881e-04	2.691564e-08	2.259611e-04	2.477866e-04	2.477866e-04	1.199842e+00	1.199842e+00	2.332426e-04	2.405160e-04	1.690000e-09	1.200000e+00	
182	1.700000e-09	6.962042e-07	5.184214e-07	2.479719e-04	-2.524666e-08	2.259769e-04	2.477923e-04	2.477923e-04	1.199842e+00	1.199842e+00	2.332425e-04	2.405160e-04	1.700000e-09	1.200000e+00	
183	1.710000e-09	-6.876934e-07	-5.050773e-07	2.479854e-04	2.882206e-08	2.259614e-04	2.477867e-04	2.477867e-04	1.199842e+00	1.199842e+00	2.332426e-04	2.405160e-04	1.710000e-09	1.200000e+00	
184	1.720000e-09	6.898352e-07	4.972735e-07	2.479745e-04	-2.704853e-08	2.259766e-04	2.477922e-04	2.477922e-04	1.199842e+00	1.199842e+00	2.332425e-04	2.405160e-04	1.720000e-09	1.200000e+00	
185	1.730000e-09	-6.814379e-07	-4.843382e-07	2.479828e-04	3.052320e-08	2.259616e-04	2.477868e-04	2.477867e-04	1.199842e+00	1.199842e+00	2.332426e-04	2.405160e-04	1.730000e-09	1.200000e+00	
186	1.740000e-09	6.836905e-07	4.769351e-07	2.479771e-04	-2.865268e-08	2.259764e-04	2.477921e-04	2.477921e-04	1.199842e+00	1.199842e+00	2.332425e-04	2.405160e-04	1.740000e-09	1.200000e+00	
187	1.750000e-09	-6.754014e-07	-4.643926e-07	2.479802e-04	3.203403e-08	2.259618e-04	2.477869e-04	2.477868e-04	1.199842e+00	1.199842e+00	2.332426e-04	2.405160e-04	1.750000e-09	1.200000e+00	
188	1.760000e-09	6.777599e-07	4.573746e-07	2.479797e-04	-3.007372e-08	2.259762e-04	2.477920e-04	2.477920e-04	1.199842e+00	1.199842e+00	2.332425e-04	2.405160e-04	1.760000e-09	1.200000e+00	
189	1.770000e-09	-6.695744e-07	-4.452100e-07	2.479778e-04	3.336865e-08	2.259621e-04	2.477869e-04	2.477869e-04	1.199842e+00	1.199842e+00	2.332426e-04	2.405160e-04	1.770000e-09	1.200000e+00	
190	1.780000e-09	6.720341e-07	4.385629e-07	2.479821e-04	-3.132516e-08	2.259759e-04	2.477919e-04	2.477919e-04	1.199842e+00	1.199842e+00	2.332425e-04	2.405160e-04	1.780000e-09	1.200000e+00	
191	1.790000e-09	-6.639477e-07	-4.267620e-07	2.479754e-04	3.454007e-08	2.259623e-04	2.477870e-04	2.477870e-04	1.199842e+00	1.199842e+00	2.332426e-04	2.405160e-04	1.790000e-09	1.200000e+00	
192	1.800000e-09	6.665044e-07	4.204720e-07	2.479844e-04	-3.241961e-08	2.259757e-04	2.477918e-04	2.477918e-04	1.199842e+00	1.199842e+00	2.332425e-04	2.405160e-04	1.800000e-09	1.200000e+00	
193	1.810000e-09	-6.585128e-07	-4.090214e-07	2.479731e-04	3.556051e-08	2.259625e-04	2.477871e-04	2.477871e-04	1.199842e+00	1.199842e+00	2.332426e-04	2.405160e-04	1.810000e-09	1.200000e+00	
194	1.820000e-09	6.611623e-07	4.030751e-07	2.479867e-04	-3.336889e-08	2.259755e-04	2.477918e-04	2.477917e-04	1.199842e+00	1.199842e+00	2.332425e-04	2.405160e-04	1.820000e-09	1.200000e+00	
195	1.830000e-09	-6.532614e-07	-3.919615e-07	2.479708e-04	3.644140e-08	2.259627e-04	2.477872e-04	2.477872e-04	1.199842e+00	1.199842e+00	2.332426e-04	2.405160e-04	1.830000e-09	1.200000e+00	
196	1.840000e-09	6.559996e-07	3.863454e-07	2.479889e-04	-3.418413e-08	2.259753e-04	2.477917e-04	2.477917e-04	1.199842e+00	1.199842e+00	2.332425e-04	2.405160e-04	1.840000e-09	1.200000e+00	
197	1.850000e-09	-6.481855e-07	-3.755559e-07	2.479687e-04	3.719356e-08	2.259629e-04	2.477873e-04	2.477872e-04	1.199842e+00	1.199842e+00	2.332426e-04	2.405160e-04	1.850000e-09	1.200000e+00	
198	1.860000e-09	6.510085e-07	3.702578e-07	2.479910e-04	-3.487570e-08	2.259751e-04	2.477916e-04	2.477916e-04	1.199842e+00	1.199842e+00	2.332425e-04	2.405160e-04	1.860000e-09	1.200000e+00	
199	1.870000e-09	-6.432774e-07	-3.597802e-07	2.479666e-04	3.782696e-08	2.259631e-04	2.477873e-04	2.477873e-04	1.199842e+00	1.199842e+00	2.332426e-04	2.405160e-04	1.870000e-09	1.200000e+00	
200	1.880000e-09	6.461816e-07	3.547881e-07	2.479930e-04	-3.545326e-08	2.259749e-04	2.477915e-04	2.477915e-04	1.199842e+00	1.199842e+00	2.332425e-04	2.405160e-04	1.880000e-09	1.200000e+00	
201	1.890000e-09	-6.385300e-07	-3.446108e-07	2.479646e-04	3.835092e-08	2.259633e-04	2.477874e-04	2.477874e-04	1.199842e+00	1.199842e+00	2.332426e-04	2.405160e-04	1.890000e-09	1.200000e+00	
202	1.900000e-09	6.415120e-07	3.399133e-07	2.479950e-04	-3.592580e-08	2.259747e-04	2.477915e-04	2.477914e-04	1.199842e+00	1.199842e+00	2.332425e-04	2.405160e-04	1.900000e-09	1.200000e+00	
203	1.910000e-09	-6.339364e-07	-3.300249e-07	2.479626e-04	3.877417e-08	2.259635e-04	2.477875e-04	2.477875e-04	1.199842e+00	1.199842e+00	2.332426e-04	2.405160e-04	1.910000e-09	1.200000e+00	
204	1.920000e-09	6.369929e-07	3.256110e-07	2.479969e-04	-3.630177e-08	2.259745e-04	2.477914e-04	2.477914e-04	1.199842e+00	1.199842e+00	2.332425e-04	2.405160e-04	1.920000e-09	1.200000e+00	
205	1.930000e-09	-6.294901e-07	-3.160008e-07	2.479608e-04	3.910483e-08	2.259637e-04	2.477875e-04	2.477875e-04	1.199842e+00	1.199842e+00	2.332426e-04	2.405160e-04	1.930000e-09	1.200000e+00	
206	1.940000e-09	6.326179e-07	3.118595e-07	2.479988e-04	-3.658904e-08	2.259744e-04	2.477913e-04	2.477913e-04	1.199842e+00	1.199842e+00	2.332425e-04	2.405160e-04	1.940000e-09	1.200000e+00	
207	1.950000e-09	-6.251848e-07	-3.025166e-07	2.479589e-04	3.935058e-08	2.259638e-04	2.477876e-04	2.477876e-04	1.199842e+00	1.199842e+00	2.332426e-04	2.405160e-04	1.950000e-09	1.200000e+00	
208	1.960000e-09	6.283806e-07	2.986376e-07	2.480006e-04	-3.679504e-08	2.259742e-04	2.477913e-04	2.477912e-04	1.199842e+00	1.199842e+00	2.332425e-04	2.405160e-04	1.960000e-09	1.200000e+00	
209	1.970000e-09	-6.210143e-07	-2.895523e-07	2.479572e-04	3.951849e-08	2.259640e-04	2.477877e-04	2.477877e-04	1.199842e+00	1.199842e+00	2.332426e-04	2.405160e-04	1.970000e-09	1.200000e+00	
210	1.980000e-09	6.242755e-07	2.859262e-07	2.480023e-04	-3.692649e-08	2.259740e-04	2.477912e-04	2.477912e-04	1.199842e+00	1.199842e+00	2.332425e-04	2.405160e-04	1.980000e-09	1.200000e+00	
211	1.990000e-09	-6.169731e-07	-2.770888e-07	2.479555e-04	3.961511e-08	2.259642e-04	2.477877e-04	2.477877e-04	1.199842e+00	1.199842e+00	2.332426e-04	2.405160e-04	1.990000e-09	1.200000e+00	
212	2.000000e-09	6.202969e-07	2.737057e-07	2.480039e-04	-3.698984e-08	2.259739e-04	2.477911e-04	2.477911e-04	1.199842e+00	1.199842e+00	2.332425e-04	2.405160e-04	2.000000e-09	1.200000e+00	

                                                                                                              * spice from s1000s
                                                                                                              Transient Analysis  Fri Feb 20 21:56:54  2009
------------------------------------------------------------------------------------------------------------------------------------------------------------------------------------------------------------------------------------------------
Index   time            vdd#branch      vdt#branch      
------------------------------------------------------------------------------------------------------------------------------------------------------------------------------------------------------------------------------------------------
0	0.000000e+00	-8.376580e-06	0.000000e+00	
1	1.000000e-13	-7.204254e-06	7.571314e-08	
2	2.000000e-13	-7.783534e-06	2.312066e-08	
3	4.000000e-13	-8.725345e-06	-5.927017e-08	
4	8.000000e-13	-9.770125e-06	-1.379441e-07	
5	1.600000e-12	-1.068996e-05	-1.543153e-07	
6	3.200000e-12	-1.135849e-05	-6.216891e-08	
7	6.400000e-12	-1.190207e-05	7.502806e-08	
8	1.280000e-11	-1.233480e-05	1.347151e-07	
9	2.280000e-11	-1.266356e-05	1.316902e-07	
10	3.280000e-11	-1.289605e-05	1.393726e-07	
11	4.280000e-11	-1.305953e-05	1.390692e-07	
12	5.280000e-11	-1.318300e-05	1.420912e-07	
13	6.280000e-11	-1.326699e-05	1.423844e-07	
14	7.280000e-11	-1.333336e-05	1.438059e-07	
15	8.280000e-11	-1.337538e-05	1.439811e-07	
16	9.280000e-11	-1.341213e-05	1.447673e-07	
17	1.028000e-10	-1.343201e-05	1.447862e-07	
18	1.128000e-10	-1.345342e-05	1.452849e-07	
19	1.228000e-10	-1.346159e-05	1.452005e-07	
20	1.328000e-10	-1.347507e-05	1.455589e-07	
21	1.428000e-10	-1.347702e-05	1.454160e-07	
22	1.528000e-10	-1.348644e-05	1.457024e-07	
23	1.628000e-10	-1.348505e-05	1.455293e-07	
24	1.728000e-10	-1.349243e-05	1.457766e-07	
25	1.828000e-10	-1.348922e-05	1.455896e-07	
26	1.928000e-10	-1.349559e-05	1.458142e-07	
27	2.000000e-10	-1.349112e-05	1.456199e-07	
28	2.010000e-10	4.523079e-05	-1.278097e-04	
29	2.030000e-10	1.252647e-04	-2.540825e-04	
30	2.070000e-10	1.775379e-04	-2.825808e-04	
31	2.150000e-10	1.492121e-04	-2.985312e-04	
32	2.250000e-10	-6.065355e-05	-3.052623e-04	
33	2.350000e-10	-6.515468e-04	-3.495404e-04	
34	2.450000e-10	-1.573673e-03	-3.685746e-04	
35	2.550000e-10	-2.469977e-03	-3.888013e-04	
36	2.650000e-10	-2.798401e-03	-4.303540e-04	
37	2.750000e-10	-2.370692e-03	-5.046784e-04	
38	2.850000e-10	-2.362393e-03	-5.201417e-04	
39	2.950000e-10	-3.572025e-03	-4.533416e-04	
40	3.050000e-10	-4.879019e-03	-3.382044e-04	
41	3.150000e-10	-4.393729e-03	-2.896653e-04	
42	3.250000e-10	-2.272910e-03	-2.872570e-04	
43	3.260000e-10	-2.230972e-03	-1.450184e-04	
44	3.280000e-10	-1.939824e-03	-1.609859e-05	
45	3.320000e-10	-1.362282e-03	-2.620422e-05	
46	3.400000e-10	-6.735870e-04	-1.323706e-05	
47	3.500000e-10	-3.102650e-04	-1.560171e-05	
48	3.600000e-10	-1.817815e-04	-7.090347e-06	
49	3.700000e-10	-1.162109e-04	-8.433222e-06	
50	3.800000e-10	-8.495350e-05	-3.589716e-06	
51	3.900000e-10	-6.028828e-05	-4.505486e-06	
52	4.000000e-10	-4.853330e-05	-1.825742e-06	
53	4.100000e-10	-3.612135e-05	-2.425192e-06	
54	4.200000e-10	-3.150179e-05	-9.486044e-07	
55	4.300000e-10	-2.446309e-05	-1.328256e-06	
56	4.400000e-10	-2.304534e-05	-5.155954e-07	
57	4.500000e-10	-1.862869e-05	-7.505266e-07	
58	4.600000e-10	-1.873776e-05	-3.023752e-07	
59	4.700000e-10	-1.568011e-05	-4.459846e-07	
60	4.800000e-10	-1.651800e-05	-1.980606e-07	
61	4.900000e-10	-1.418947e-05	-2.852528e-07	
62	5.000000e-10	-1.536278e-05	-1.474236e-07	
63	5.100000e-10	-1.344110e-05	-2.002892e-07	
64	5.200000e-10	-1.475389e-05	-1.230851e-07	
65	5.300000e-10	-1.307165e-05	-1.552937e-07	
66	5.400000e-10	-1.442655e-05	-1.115372e-07	
67	5.500000e-10	-1.289559e-05	-1.314127e-07	
68	5.600000e-10	-1.424488e-05	-1.061541e-07	
69	5.700000e-10	-1.281798e-05	-1.187050e-07	
70	5.800000e-10	-1.413894e-05	-1.037078e-07	
71	5.900000e-10	-1.279020e-05	-1.119210e-07	
72	6.000000e-10	-1.407266e-05	-1.026398e-07	
73	6.100000e-10	-1.278737e-05	-1.082840e-07	
74	6.200000e-10	-1.402742e-05	-1.022054e-07	
75	6.300000e-10	-1.279677e-05	-1.063226e-07	
76	6.400000e-10	-1.399357e-05	-1.020539e-07	
77	6.500000e-10	-1.281194e-05	-1.052557e-07	
78	6.600000e-10	-1.396608e-05	-1.020234e-07	
79	6.700000e-10	-1.282958e-05	-1.046676e-07	
80	6.800000e-10	-1.394232e-05	-1.020408e-07	
81	6.900000e-10	-1.284805e-05	-1.043368e-07	
82	7.000000e-10	-1.392090e-05	-1.020744e-07	
83	7.100000e-10	-1.286655e-05	-1.041448e-07	
84	7.200000e-10	-1.390109e-05	-1.021113e-07	
85	7.300000e-10	-1.288467e-05	-1.040281e-07	
86	7.400000e-10	-1.388247e-05	-1.021467e-07	
87	7.500000e-10	-1.290225e-05	-1.039528e-07	
88	7.600000e-10	-1.386480e-05	-1.021794e-07	
89	7.700000e-10	-1.291922e-05	-1.039004e-07	
90	7.800000e-10	-1.384795e-05	-1.022091e-07	
91	7.900000e-10	-1.293555e-05	-1.038611e-07	
92	8.000000e-10	-1.383183e-05	-1.022364e-07	
93	8.100000e-10	-1.295126e-05	-1.038293e-07	
94	8.200000e-10	-1.381638e-05	-1.022616e-07	
95	8.300000e-10	-1.296636e-05	-1.038021e-07	
96	8.400000e-10	-1.380154e-05	-1.022850e-07	
97	8.500000e-10	-1.298088e-05	-1.037780e-07	
98	8.600000e-10	-1.378729e-05	-1.023070e-07	
99	8.700000e-10	-1.299483e-05	-1.037559e-07	
100	8.800000e-10	-1.377360e-05	-1.023278e-07	
101	8.900000e-10	-1.300826e-05	-1.037353e-07	
102	9.000000e-10	-1.376043e-05	-1.023474e-07	
103	9.100000e-10	-1.302117e-05	-1.037160e-07	
104	9.200000e-10	-1.374777e-05	-1.023660e-07	
105	9.300000e-10	-1.303359e-05	-1.036977e-07	
106	9.400000e-10	-1.373558e-05	-1.023837e-07	
107	9.500000e-10	-1.304554e-05	-1.036803e-07	
108	9.600000e-10	-1.372386e-05	-1.024007e-07	
109	9.700000e-10	-1.305704e-05	-1.036638e-07	
110	9.800000e-10	-1.371258e-05	-1.024168e-07	
111	9.900000e-10	-1.306811e-05	-1.036480e-07	
112	1.000000e-09	-1.370172e-05	-1.024322e-07	
113	1.010000e-09	-1.307876e-05	-1.036329e-07	
114	1.020000e-09	-1.369127e-05	-1.024470e-07	
115	1.030000e-09	-1.308901e-05	-1.036185e-07	
116	1.040000e-09	-1.368121e-05	-1.024611e-07	
117	1.050000e-09	-1.309888e-05	-1.036046e-07	
118	1.060000e-09	-1.367153e-05	-1.024746e-07	
119	1.070000e-09	-1.310839e-05	-1.035914e-07	
120	1.080000e-09	-1.366220e-05	-1.024876e-07	
121	1.090000e-09	-1.311753e-05	-1.035787e-07	
122	1.100000e-09	-1.365322e-05	-1.025000e-07	
123	1.110000e-09	-1.312634e-05	-1.035665e-07	
124	1.120000e-09	-1.364458e-05	-1.025120e-07	
125	1.130000e-09	-1.313482e-05	-1.035548e-07	
126	1.140000e-09	-1.363626e-05	-1.025234e-07	
127	1.150000e-09	-1.314299e-05	-1.035436e-07	
128	1.160000e-09	-1.362825e-05	-1.025345e-07	
129	1.170000e-09	-1.315085e-05	-1.035328e-07	
130	1.180000e-09	-1.362053e-05	-1.025450e-07	
131	1.190000e-09	-1.315842e-05	-1.035224e-07	
132	1.200000e-09	-1.361310e-05	-1.025552e-07	
133	1.210000e-09	-1.316572e-05	-1.035124e-07	
134	1.220000e-09	-1.360594e-05	-1.025650e-07	
135	1.230000e-09	-1.317274e-05	-1.035028e-07	
136	1.240000e-09	-1.359905e-05	-1.025745e-07	
137	1.250000e-09	-1.317950e-05	-1.034935e-07	
138	1.260000e-09	-1.359242e-05	-1.025835e-07	
139	1.270000e-09	-1.318601e-05	-1.034846e-07	
140	1.280000e-09	-1.358603e-05	-1.025923e-07	
141	1.290000e-09	-1.319228e-05	-1.034760e-07	
142	1.300000e-09	-1.357987e-05	-1.026007e-07	
143	1.310000e-09	-1.319832e-05	-1.034677e-07	
144	1.320000e-09	-1.357395e-05	-1.026089e-07	
145	1.330000e-09	-1.320414e-05	-1.034597e-07	
146	1.340000e-09	-1.356824e-05	-1.026167e-07	
147	1.350000e-09	-1.320974e-05	-1.034520e-07	
148	1.360000e-09	-1.356275e-05	-1.026243e-07	
149	1.370000e-09	-1.321513e-05	-1.034446e-07	
150	1.380000e-09	-1.355745e-05	-1.026317e-07	
151	1.390000e-09	-1.322033e-05	-1.034374e-07	
152	1.400000e-09	-1.355235e-05	-1.026387e-07	
153	1.410000e-09	-1.322533e-05	-1.034304e-07	
154	1.420000e-09	-1.354744e-05	-1.026456e-07	
155	1.430000e-09	-1.323015e-05	-1.034237e-07	
156	1.440000e-09	-1.354271e-05	-1.026522e-07	
157	1.450000e-09	-1.323479e-05	-1.034172e-07	
158	1.460000e-09	-1.353816e-05	-1.026586e-07	
159	1.470000e-09	-1.323926e-05	-1.034109e-07	
160	1.480000e-09	-1.353377e-05	-1.026648e-07	
161	1.490000e-09	-1.324356e-05	-1.034048e-07	
162	1.500000e-09	-1.352955e-05	-1.026708e-07	
163	1.510000e-09	-1.324771e-05	-1.033989e-07	
164	1.520000e-09	-1.352548e-05	-1.026766e-07	
165	1.530000e-09	-1.325170e-05	-1.033932e-07	
166	1.540000e-09	-1.352156e-05	-1.026822e-07	
167	1.550000e-09	-1.325555e-05	-1.033876e-07	
168	1.560000e-09	-1.351779e-05	-1.026876e-07	
169	1.570000e-09	-1.325925e-05	-1.033823e-07	
170	1.580000e-09	-1.351415e-05	-1.026929e-07	
171	1.590000e-09	-1.326282e-05	-1.033771e-07	
172	1.600000e-09	-1.351065e-05	-1.026980e-07	
173	1.610000e-09	-1.326625e-05	-1.033720e-07	
174	1.620000e-09	-1.350728e-05	-1.027030e-07	
175	1.630000e-09	-1.326956e-05	-1.033672e-07	
176	1.640000e-09	-1.350403e-05	-1.027078e-07	
177	1.650000e-09	-1.327275e-05	-1.033624e-07	
178	1.660000e-09	-1.350091e-05	-1.027125e-07	
179	1.670000e-09	-1.327582e-05	-1.033578e-07	
180	1.680000e-09	-1.349790e-05	-1.027170e-07	
181	1.690000e-09	-1.327878e-05	-1.033533e-07	
182	1.700000e-09	-1.349499e-05	-1.027214e-07	
183	1.710000e-09	-1.328162e-05	-1.033490e-07	
184	1.720000e-09	-1.349220e-05	-1.027257e-07	
185	1.730000e-09	-1.328436e-05	-1.033448e-07	
186	1.740000e-09	-1.348951e-05	-1.027299e-07	
187	1.750000e-09	-1.328700e-05	-1.033407e-07	
188	1.760000e-09	-1.348692e-05	-1.027339e-07	
189	1.770000e-09	-1.328955e-05	-1.033367e-07	
190	1.780000e-09	-1.348442e-05	-1.027378e-07	
191	1.790000e-09	-1.329199e-05	-1.033328e-07	
192	1.800000e-09	-1.348202e-05	-1.027416e-07	
193	1.810000e-09	-1.329435e-05	-1.033291e-07	
194	1.820000e-09	-1.347970e-05	-1.027453e-07	
195	1.830000e-09	-1.329662e-05	-1.033254e-07	
196	1.840000e-09	-1.347748e-05	-1.027490e-07	
197	1.850000e-09	-1.329881e-05	-1.033219e-07	
198	1.860000e-09	-1.347533e-05	-1.027525e-07	
199	1.870000e-09	-1.330092e-05	-1.033184e-07	
200	1.880000e-09	-1.347326e-05	-1.027559e-07	
201	1.890000e-09	-1.330295e-05	-1.033150e-07	
202	1.900000e-09	-1.347127e-05	-1.027592e-07	
203	1.910000e-09	-1.330490e-05	-1.033118e-07	
204	1.920000e-09	-1.346935e-05	-1.027624e-07	
205	1.930000e-09	-1.330678e-05	-1.033086e-07	
206	1.940000e-09	-1.346751e-05	-1.027656e-07	
207	1.950000e-09	-1.330859e-05	-1.033054e-07	
208	1.960000e-09	-1.346573e-05	-1.027687e-07	
209	1.970000e-09	-1.331034e-05	-1.033024e-07	
210	1.980000e-09	-1.346402e-05	-1.027717e-07	
211	1.990000e-09	-1.331202e-05	-1.032995e-07	
212	2.000000e-09	-1.346237e-05	-1.027746e-07	

CPU time since last call: 0.090 seconds.

Total CPU time: 0.090 seconds.

Total DRAM available = 2017.597656 MB.
DRAM currently available = 74.460938 MB.
Total ngspice program size = 7.868164 MB.
Resident set size = 3.125000 MB.
Shared ngspice pages = 551.000 kB.
Text (code) pages = 1.404297 MB.
Stack = 0 bytes.
Library pages = 5.515625 MB.

