
Circuit: * spice from s1000s

Doing analysis at TEMP = 75.000000 and TNOM = 27.000000


Initial Transient Solution
--------------------------

Node                                   Voltage
----                                   -------
n0                                           0
n1                                           0
n4                                         1.2
n2                                           0
n3                                         1.2
nseg_node_5                                  0
nseg_node_6                                  0
gin                                        1.2
vdd                                        1.2
vdt#branch                         1.31316e-07
vdd#branch                        -8.37658e-06


No. of Data Rows : 213

                                                                                                              * spice from s1000s
                                                                                                              Transient Analysis  Fri Feb 20 21:56:54  2009
------------------------------------------------------------------------------------------------------------------------------------------------------------------------------------------------------------------------------------------------
Index   time            gin             m.x0.m1#body    m.x0.m1#dbody   m.x0.m1#gate    m.x0.m1#sbody   m.x0.m2#body    m.x0.m2#dbody   m.x0.m2#gate    m.x0.m2#sbody   m.x1.m1#body    m.x1.m1#dbody   m.x1.m1#gate    m.x1.m1#sbody   
------------------------------------------------------------------------------------------------------------------------------------------------------------------------------------------------------------------------------------------------
0	0.000000e+00	1.200000e+00	1.200000e+00	1.200000e+00	1.199998e+00	1.200000e+00	2.690256e-07	1.345128e-07	1.199996e+00	1.345128e-07	1.200000e+00	1.200000e+00	1.107109e-05	1.200000e+00	
1	1.000000e-13	1.200000e+00	1.200001e+00	1.200004e+00	1.200002e+00	1.200000e+00	3.721823e-06	4.568816e-06	1.200000e+00	1.194433e-06	1.199991e+00	1.199989e+00	2.081409e-06	1.199998e+00	
2	2.000000e-13	1.200000e+00	1.200001e+00	1.200004e+00	1.200004e+00	1.200000e+00	3.789435e-06	5.456097e-06	1.200004e+00	1.624372e-06	1.199992e+00	1.199988e+00	-3.794831e-06	1.199997e+00	
3	4.000000e-13	1.200000e+00	1.200001e+00	1.200004e+00	1.200009e+00	1.200001e+00	3.430644e-06	5.320459e-06	1.200009e+00	1.846189e-06	1.199994e+00	1.199989e+00	-1.289345e-05	1.199996e+00	
4	8.000000e-13	1.200000e+00	1.200001e+00	1.200003e+00	1.200013e+00	1.200000e+00	2.498964e-06	3.566316e-06	1.200014e+00	1.292648e-06	1.199996e+00	1.199994e+00	-2.200940e-05	1.199998e+00	
5	1.600000e-12	1.200000e+00	1.200000e+00	1.200002e+00	1.200012e+00	1.200000e+00	1.536576e-06	2.237975e-06	1.200013e+00	8.022175e-07	1.199999e+00	1.199998e+00	-2.428650e-05	1.199999e+00	
6	3.200000e-12	1.200000e+00	1.200000e+00	1.200000e+00	1.200005e+00	1.200000e+00	7.018915e-07	7.316460e-07	1.200004e+00	3.523739e-07	1.200000e+00	1.200000e+00	-1.243734e-05	1.200000e+00	
7	6.400000e-12	1.200000e+00	1.200000e+00	1.200000e+00	1.199999e+00	1.200000e+00	4.136521e-07	4.436413e-07	1.199997e+00	2.109556e-07	1.200000e+00	1.200000e+00	9.695136e-06	1.200000e+00	
8	1.280000e-11	1.200000e+00	1.200000e+00	1.200000e+00	1.199999e+00	1.200000e+00	3.102613e-07	1.184024e-07	1.199997e+00	1.521565e-07	1.200000e+00	1.200000e+00	4.687926e-05	1.200000e+00	
9	2.280000e-11	1.200000e+00	1.200000e+00	1.200000e+00	1.199998e+00	1.200000e+00	3.236460e-07	2.994274e-07	1.199996e+00	1.646402e-07	1.200000e+00	1.200000e+00	1.047625e-04	1.200000e+00	
10	3.280000e-11	1.200000e+00	1.200000e+00	1.200000e+00	1.199999e+00	1.200000e+00	2.790487e-07	7.175742e-08	1.199996e+00	1.370541e-07	1.200000e+00	1.200000e+00	1.487024e-04	1.200000e+00	
11	4.280000e-11	1.200000e+00	1.200000e+00	1.200000e+00	1.199998e+00	1.200000e+00	3.057526e-07	2.692006e-07	1.199996e+00	1.551194e-07	1.200000e+00	1.200000e+00	1.797359e-04	1.200000e+00	
12	5.280000e-11	1.200000e+00	1.200000e+00	1.200000e+00	1.199998e+00	1.200000e+00	2.659769e-07	5.349273e-08	1.199996e+00	1.310481e-07	1.200000e+00	1.200000e+00	2.021647e-04	1.200000e+00	
13	6.280000e-11	1.200000e+00	1.200000e+00	1.200000e+00	1.199998e+00	1.200000e+00	2.960224e-07	2.517928e-07	1.199996e+00	1.497167e-07	1.200000e+00	1.200000e+00	2.181456e-04	1.200000e+00	
14	7.280000e-11	1.200000e+00	1.200000e+00	1.200000e+00	1.199998e+00	1.200000e+00	2.595761e-07	4.562286e-08	1.199996e+00	1.283512e-07	1.200000e+00	1.200000e+00	2.296980e-04	1.200000e+00	
15	8.280000e-11	1.200000e+00	1.200000e+00	1.200000e+00	1.199998e+00	1.200000e+00	2.907114e-07	2.413544e-07	1.199996e+00	1.465635e-07	1.200000e+00	1.200000e+00	2.378927e-04	1.200000e+00	
16	9.280000e-11	1.200000e+00	1.200000e+00	1.200000e+00	1.199998e+00	1.200000e+00	2.565754e-07	4.302240e-08	1.199996e+00	1.273218e-07	1.200000e+00	1.200000e+00	2.438647e-04	1.200000e+00	
17	1.028000e-10	1.200000e+00	1.200000e+00	1.200000e+00	1.199998e+00	1.200000e+00	2.877049e-07	2.345776e-07	1.199996e+00	1.446010e-07	1.200000e+00	1.200000e+00	2.480491e-04	1.200000e+00	
18	1.128000e-10	1.200000e+00	1.200000e+00	1.200000e+00	1.199998e+00	1.200000e+00	2.552908e-07	4.305432e-08	1.199996e+00	1.271167e-07	1.200000e+00	1.200000e+00	2.511522e-04	1.200000e+00	
19	1.228000e-10	1.200000e+00	1.200000e+00	1.200000e+00	1.199998e+00	1.200000e+00	2.859124e-07	2.297555e-07	1.199996e+00	1.432816e-07	1.200000e+00	1.200000e+00	2.532735e-04	1.200000e+00	
20	1.328000e-10	1.200000e+00	1.200000e+00	1.200000e+00	1.199998e+00	1.200000e+00	2.548655e-07	4.437770e-08	1.199996e+00	1.273082e-07	1.200000e+00	1.200000e+00	2.549005e-04	1.200000e+00	
21	1.428000e-10	1.200000e+00	1.200000e+00	1.200000e+00	1.199998e+00	1.200000e+00	2.847633e-07	2.259940e-07	1.199996e+00	1.423174e-07	1.200000e+00	1.200000e+00	2.559613e-04	1.200000e+00	
22	1.528000e-10	1.200000e+00	1.200000e+00	1.200000e+00	1.199998e+00	1.200000e+00	2.548668e-07	4.631616e-08	1.199996e+00	1.276817e-07	1.200000e+00	1.200000e+00	2.568282e-04	1.200000e+00	
23	1.628000e-10	1.200000e+00	1.200000e+00	1.200000e+00	1.199998e+00	1.200000e+00	2.839582e-07	2.228230e-07	1.199996e+00	1.415563e-07	1.200000e+00	1.200000e+00	2.573442e-04	1.200000e+00	
24	1.728000e-10	1.200000e+00	1.200000e+00	1.200000e+00	1.199998e+00	1.200000e+00	2.550762e-07	4.852906e-08	1.199996e+00	1.281297e-07	1.200000e+00	1.200000e+00	2.578194e-04	1.200000e+00	
25	1.828000e-10	1.200000e+00	1.200000e+00	1.200000e+00	1.199998e+00	1.200000e+00	2.833402e-07	2.199955e-07	1.199996e+00	1.409176e-07	1.200000e+00	1.200000e+00	2.580560e-04	1.200000e+00	
26	1.928000e-10	1.200000e+00	1.200000e+00	1.200000e+00	1.199998e+00	1.200000e+00	2.553834e-07	5.084505e-08	1.199996e+00	1.285991e-07	1.200000e+00	1.200000e+00	2.583289e-04	1.200000e+00	
27	2.000000e-10	1.200000e+00	1.200000e+00	1.200000e+00	1.199998e+00	1.200000e+00	2.827561e-07	2.169243e-07	1.199996e+00	1.402669e-07	1.200000e+00	1.200000e+00	2.583844e-04	1.200000e+00	
28	2.010000e-10	1.190400e+00	1.199967e+00	1.199965e+00	1.194805e+00	1.199985e+00	-4.821133e-06	-2.020530e-05	1.194591e+00	-2.259659e-06	1.200000e+00	1.200000e+00	2.574572e-04	1.200000e+00	
29	2.030000e-10	1.171200e+00	1.199940e+00	1.199948e+00	1.179753e+00	1.199970e+00	1.690480e-05	-1.202315e-05	1.179121e+00	7.676697e-06	1.200000e+00	1.200000e+00	2.501793e-04	1.200000e+00	
30	2.070000e-10	1.132800e+00	1.199952e+00	1.199984e+00	1.141304e+00	1.199976e+00	-1.400806e-05	1.710392e-06	1.140425e+00	-5.804476e-06	1.200000e+00	1.200000e+00	1.726512e-04	1.200000e+00	
31	2.150000e-10	1.056000e+00	1.199953e+00	1.199986e+00	1.065155e+00	1.199977e+00	7.222692e-06	1.189182e-05	1.064008e+00	2.284635e-06	1.200000e+00	1.200000e+00	-1.382964e-04	1.200000e+00	
32	2.250000e-10	9.600000e-01	1.199973e+00	1.200052e+00	9.705816e-01	1.199986e+00	5.341205e-05	8.872607e-05	9.680591e-01	2.771295e-05	1.200000e+00	1.200001e+00	3.035727e-04	1.200000e+00	
33	2.350000e-10	8.640000e-01	1.199980e+00	1.200129e+00	8.769799e-01	1.199990e+00	9.284190e-05	1.732308e-04	8.727805e-01	4.519417e-05	1.200000e+00	1.200002e+00	4.112070e-03	1.200000e+00	
34	2.450000e-10	7.680000e-01	1.199996e+00	1.200209e+00	7.817099e-01	1.199998e+00	6.844906e-05	2.252752e-04	7.767837e-01	3.557231e-05	1.199998e+00	1.200002e+00	1.484231e-02	1.199999e+00	
35	2.550000e-10	6.720000e-01	1.200018e+00	1.200325e+00	6.868747e-01	1.200009e+00	2.344632e-05	2.857262e-04	6.810565e-01	1.068832e-05	1.200000e+00	1.200002e+00	3.622129e-02	1.200000e+00	
36	2.650000e-10	5.760000e-01	1.200100e+00	1.200680e+00	5.929294e-01	1.200049e+00	1.060484e-04	5.750754e-04	5.863967e-01	5.352039e-05	1.199999e+00	1.200002e+00	7.326787e-02	1.200000e+00	
37	2.750000e-10	4.800000e-01	1.200193e+00	1.201090e+00	5.011133e-01	1.200096e+00	1.369828e-04	8.140703e-04	4.915608e-01	6.781544e-05	1.200005e+00	1.199992e+00	1.358631e-01	1.200002e+00	
38	2.850000e-10	3.840000e-01	1.200226e+00	1.201228e+00	4.106777e-01	1.200113e+00	1.613468e-04	8.232873e-04	3.932820e-01	8.118127e-05	1.199890e+00	1.199825e+00	2.348898e-01	1.199946e+00	
39	2.950000e-10	2.880000e-01	1.200172e+00	1.201023e+00	3.134836e-01	1.200087e+00	9.512279e-05	6.068887e-04	2.956669e-01	4.747741e-05	1.199664e+00	1.199281e+00	3.673431e-01	1.199833e+00	
40	3.050000e-10	1.920000e-01	1.200070e+00	1.200464e+00	2.130898e-01	1.200035e+00	3.516483e-05	2.527380e-04	1.975151e-01	1.803666e-05	1.199881e+00	1.198574e+00	5.159167e-01	1.199937e+00	
41	3.150000e-10	9.600000e-02	1.200086e+00	1.200317e+00	1.149872e-01	1.200043e+00	-8.671403e-06	1.488908e-04	1.008965e-01	-4.506437e-06	1.199189e+00	1.196688e+00	6.430637e-01	1.199604e+00	
42	3.250000e-10	0.000000e+00	1.200102e+00	1.200210e+00	1.873161e-02	1.200051e+00	-7.975277e-06	7.508107e-05	4.396673e-03	-3.825467e-06	1.200097e+00	1.199478e+00	7.826275e-01	1.200032e+00	
43	3.260000e-10	0.000000e+00	1.200110e+00	1.200236e+00	1.263907e-02	1.200055e+00	1.267398e-05	1.023083e-04	1.616878e-03	5.735779e-06	1.199955e+00	1.199506e+00	7.945153e-01	1.199982e+00	
44	3.280000e-10	0.000000e+00	1.200128e+00	1.200246e+00	4.953018e-03	1.200064e+00	2.864596e-05	1.105418e-04	-1.760301e-05	1.438060e-05	1.199978e+00	1.199627e+00	8.184304e-01	1.199984e+00	
45	3.320000e-10	0.000000e+00	1.200101e+00	1.200187e+00	1.714626e-03	1.200051e+00	1.473394e-05	7.880768e-05	6.752601e-04	7.524892e-06	1.199999e+00	1.199753e+00	8.633078e-01	1.200003e+00	
46	3.400000e-10	0.000000e+00	1.200089e+00	1.200154e+00	1.467908e-03	1.200044e+00	1.681735e-05	6.584398e-05	1.184456e-05	8.239518e-06	1.200008e+00	1.199880e+00	9.376510e-01	1.200000e+00	
47	3.500000e-10	0.000000e+00	1.200066e+00	1.200114e+00	1.091971e-03	1.200034e+00	8.217181e-06	4.540415e-05	4.281892e-04	4.326951e-06	1.200019e+00	1.199964e+00	1.009227e+00	1.200013e+00	
48	3.600000e-10	0.000000e+00	1.200054e+00	1.200088e+00	8.348711e-04	1.200026e+00	9.599814e-06	3.627077e-05	-3.890458e-05	4.578385e-06	1.200017e+00	1.199994e+00	1.061769e+00	1.200005e+00	
49	3.700000e-10	0.000000e+00	1.200037e+00	1.200063e+00	6.167624e-04	1.200020e+00	4.029850e-06	2.402056e-05	2.711495e-04	2.265534e-06	1.200016e+00	1.200000e+00	1.099699e+00	1.200011e+00	
50	3.800000e-10	0.000000e+00	1.200030e+00	1.200047e+00	4.534248e-04	1.200014e+00	5.390568e-06	1.941896e-05	-5.680738e-05	2.442450e-06	1.200011e+00	1.200003e+00	1.127315e+00	1.200002e+00	
51	3.900000e-10	0.000000e+00	1.200019e+00	1.200033e+00	3.347899e-04	1.200011e+00	1.837270e-06	1.233235e-05	1.738008e-04	1.187254e-06	1.200009e+00	1.200001e+00	1.147275e+00	1.200008e+00	
52	4.000000e-10	0.000000e+00	1.200016e+00	1.200025e+00	2.434784e-04	1.200007e+00	3.039533e-06	1.034209e-05	-5.661729e-05	1.250354e-06	1.200006e+00	1.200003e+00	1.161802e+00	1.200000e+00	
53	4.100000e-10	0.000000e+00	1.200010e+00	1.200017e+00	1.824665e-04	1.200006e+00	7.863460e-07	6.300180e-06	1.139683e-04	6.698857e-07	1.200005e+00	1.200000e+00	1.172281e+00	1.200005e+00	
54	4.200000e-10	0.000000e+00	1.200009e+00	1.200013e+00	1.323877e-04	1.200004e+00	1.727657e-06	5.519527e-06	-4.904355e-05	5.881439e-07	1.200003e+00	1.200003e+00	1.179908e+00	1.199999e+00	
55	4.300000e-10	0.000000e+00	1.200005e+00	1.200009e+00	1.015733e-04	1.200003e+00	3.061821e-07	3.208111e-06	7.627963e-05	4.307551e-07	1.200003e+00	1.199999e+00	1.185398e+00	1.200004e+00	
56	4.400000e-10	0.000000e+00	1.200005e+00	1.200007e+00	7.424250e-05	1.200002e+00	9.840553e-07	2.949415e-06	-3.964999e-05	2.170511e-07	1.200002e+00	1.200003e+00	1.189398e+00	1.199998e+00	
57	4.500000e-10	0.000000e+00	1.200002e+00	1.200005e+00	5.887828e-05	1.200002e+00	1.046200e-07	1.636082e-06	5.196239e-05	3.259174e-07	1.200002e+00	1.199998e+00	1.192270e+00	1.200003e+00	
58	4.600000e-10	0.000000e+00	1.200003e+00	1.200003e+00	4.385044e-05	1.200001e+00	5.538824e-07	1.569347e-06	-3.082057e-05	7.340195e-09	1.200001e+00	1.200002e+00	1.194368e+00	1.199998e+00	
59	4.700000e-10	0.000000e+00	1.200000e+00	1.200003e+00	3.636888e-05	1.200001e+00	3.399755e-08	8.443594e-07	3.591526e-05	2.831314e-07	1.200001e+00	1.199998e+00	1.195869e+00	1.200003e+00	
60	4.800000e-10	0.000000e+00	1.200002e+00	1.200002e+00	2.801178e-05	1.200000e+00	2.997337e-07	8.222585e-07	-2.337519e-05	-1.113053e-07	1.200000e+00	1.200002e+00	1.196969e+00	1.199998e+00	
61	4.900000e-10	0.000000e+00	1.200000e+00	1.200001e+00	2.450125e-05	1.200001e+00	2.149792e-08	4.513708e-07	2.511929e-05	2.671616e-07	1.200000e+00	1.199998e+00	1.197753e+00	1.200002e+00	
62	5.000000e-10	0.000000e+00	1.200001e+00	1.200001e+00	1.977865e-05	1.200000e+00	1.463545e-07	4.138501e-07	-1.744047e-05	-1.776415e-07	1.200000e+00	1.200002e+00	1.198330e+00	1.199998e+00	
63	5.100000e-10	0.000000e+00	1.199999e+00	1.200001e+00	1.823636e-05	1.200000e+00	3.200457e-08	2.604148e-07	1.773854e-05	2.613009e-07	1.200000e+00	1.199998e+00	1.198739e+00	1.200002e+00	
64	5.200000e-10	0.000000e+00	1.200001e+00	1.200000e+00	1.551174e-05	1.200000e+00	5.193549e-08	1.880678e-07	-1.286376e-05	-2.133615e-07	1.200000e+00	1.200002e+00	1.199043e+00	1.199998e+00	
65	5.300000e-10	0.000000e+00	1.199999e+00	1.200000e+00	1.492115e-05	1.200000e+00	4.925171e-08	1.705065e-07	1.262676e-05	2.580269e-07	1.200000e+00	1.199998e+00	1.199255e+00	1.200002e+00	
66	5.400000e-10	0.000000e+00	1.200001e+00	1.200000e+00	1.330911e-05	1.200000e+00	-7.160596e-09	6.173990e-08	-9.407199e-06	-2.308335e-07	1.200000e+00	1.200003e+00	1.199415e+00	1.199998e+00	
67	5.500000e-10	0.000000e+00	1.199999e+00	1.200000e+00	1.316042e-05	1.200000e+00	6.623609e-08	1.301488e-07	9.050045e-06	2.542706e-07	1.200000e+00	1.199997e+00	1.199525e+00	1.200002e+00	
68	5.600000e-10	0.000000e+00	1.200001e+00	1.200000e+00	1.217840e-05	1.200000e+00	-4.457319e-08	-9.754991e-09	-6.832276e-06	-2.372576e-07	1.200000e+00	1.200003e+00	1.199610e+00	1.199998e+00	
69	5.700000e-10	0.000000e+00	1.199999e+00	1.200000e+00	1.222047e-05	1.200000e+00	8.037605e-08	1.133479e-07	6.527571e-06	2.490434e-07	1.200000e+00	1.199997e+00	1.199666e+00	1.200001e+00	
70	5.800000e-10	0.000000e+00	1.200001e+00	1.200000e+00	1.160257e-05	1.200000e+00	-6.835538e-08	-5.056114e-08	-4.931907e-06	-2.369215e-07	1.200000e+00	1.200003e+00	1.199712e+00	1.199999e+00	
71	5.900000e-10	0.000000e+00	1.199999e+00	1.200000e+00	1.171515e-05	1.200000e+00	9.109951e-08	1.071833e-07	4.737847e-06	2.422673e-07	1.200000e+00	1.199997e+00	1.199740e+00	1.200001e+00	
72	6.000000e-10	0.000000e+00	1.200001e+00	1.200000e+00	1.131277e-05	1.200000e+00	-8.338083e-08	-7.388598e-08	-3.538358e-06	-2.324381e-07	1.200000e+00	1.200003e+00	1.199765e+00	1.199999e+00	
73	6.100000e-10	0.000000e+00	1.199999e+00	1.200000e+00	1.144093e-05	1.200000e+00	9.866731e-08	1.053831e-07	3.462226e-06	2.342127e-07	1.200000e+00	1.199997e+00	1.199779e+00	1.200001e+00	
74	6.200000e-10	0.000000e+00	1.200000e+00	1.200000e+00	1.116952e-05	1.200000e+00	-9.267452e-08	-8.705370e-08	-2.521022e-06	-2.254358e-07	1.200000e+00	1.200003e+00	1.199793e+00	1.199999e+00	
75	6.300000e-10	0.000000e+00	1.199999e+00	1.200000e+00	1.129028e-05	1.200000e+00	1.036188e-07	1.050171e-07	2.549911e-06	2.252402e-07	1.200000e+00	1.199997e+00	1.199799e+00	1.200001e+00	
76	6.400000e-10	0.000000e+00	1.200000e+00	1.200000e+00	1.110070e-05	1.200000e+00	-9.816069e-08	-9.419418e-08	-1.780647e-06	-2.169502e-07	1.200000e+00	1.200003e+00	1.199808e+00	1.199999e+00	
77	6.500000e-10	0.000000e+00	1.199999e+00	1.200000e+00	1.120620e-05	1.200000e+00	1.065256e-07	1.048046e-07	1.895744e-06	2.156917e-07	1.200000e+00	1.199997e+00	1.199810e+00	1.200001e+00	
78	6.600000e-10	0.000000e+00	1.200000e+00	1.200000e+00	1.106921e-05	1.200000e+00	-1.010914e-07	-9.768237e-08	-1.242995e-06	-2.076507e-07	1.200000e+00	1.200003e+00	1.199815e+00	1.199999e+00	
79	6.700000e-10	0.000000e+00	1.199999e+00	1.200000e+00	1.115833e-05	1.200000e+00	1.078945e-07	1.042568e-07	1.425756e-06	2.058520e-07	1.200000e+00	1.199997e+00	1.199816e+00	1.200001e+00	
80	6.800000e-10	0.000000e+00	1.200000e+00	1.200000e+00	1.105606e-05	1.200000e+00	-1.022976e-07	-9.891465e-08	-8.531322e-07	-1.979750e-07	1.200000e+00	1.200003e+00	1.199819e+00	1.199999e+00	
81	6.900000e-10	0.000000e+00	1.199999e+00	1.200000e+00	1.113041e-05	1.200000e+00	1.081396e-07	1.032485e-07	1.087573e-06	1.959421e-07	1.200000e+00	1.199997e+00	1.199819e+00	1.200001e+00	
82	7.000000e-10	0.000000e+00	1.200000e+00	1.200000e+00	1.105167e-05	1.200000e+00	-1.023401e-07	-9.873201e-08	-5.707010e-07	-1.882112e-07	1.200000e+00	1.200003e+00	1.199821e+00	1.199999e+00	
83	7.100000e-10	0.000000e+00	1.199999e+00	1.200000e+00	1.111364e-05	1.200000e+00	1.075839e-07	1.018074e-07	8.439297e-07	1.861255e-07	1.200000e+00	1.199997e+00	1.199820e+00	1.200001e+00	
84	7.200000e-10	0.000000e+00	1.200000e+00	1.200000e+00	1.105125e-05	1.200000e+00	-1.016019e-07	-9.765346e-08	-3.662085e-07	-1.785484e-07	1.200000e+00	1.200003e+00	1.199822e+00	1.199999e+00	
85	7.300000e-10	0.000000e+00	1.199999e+00	1.200000e+00	1.110325e-05	1.200000e+00	1.064723e-07	1.000150e-07	6.682106e-07	1.765183e-07	1.200000e+00	1.199997e+00	1.199821e+00	1.200001e+00	
86	7.400000e-10	0.000000e+00	1.200000e+00	1.200000e+00	1.105244e-05	1.200000e+00	-1.003477e-07	-9.600702e-08	-2.181775e-07	-1.691093e-07	1.200000e+00	1.200003e+00	1.199823e+00	1.199999e+00	
87	7.500000e-10	0.000000e+00	1.199999e+00	1.200000e+00	1.109657e-05	1.200000e+00	1.049867e-07	9.796130e-08	5.413549e-07	1.671994e-07	1.200000e+00	1.199997e+00	1.199821e+00	1.200001e+00	
88	7.600000e-10	0.000000e+00	1.200000e+00	1.200000e+00	1.105415e-05	1.200000e+00	-9.876098e-08	-9.400449e-08	-1.110089e-07	-1.599720e-07	1.200000e+00	1.200003e+00	1.199823e+00	1.199999e+00	
89	7.700000e-10	0.000000e+00	1.199999e+00	1.200000e+00	1.109211e-05	1.200000e+00	1.032604e-07	9.572751e-08	4.496842e-07	1.582202e-07	1.200000e+00	1.199997e+00	1.199822e+00	1.200001e+00	
90	7.800000e-10	0.000000e+00	1.200000e+00	1.200000e+00	1.105590e-05	1.200000e+00	-9.696977e-08	-9.178520e-08	-3.339346e-08	-1.511838e-07	1.200000e+00	1.200003e+00	1.199823e+00	1.199999e+00	
91	7.900000e-10	0.000000e+00	1.199999e+00	1.200000e+00	1.108902e-05	1.200000e+00	1.013897e-07	9.337993e-08	3.833680e-07	1.496110e-07	1.200000e+00	1.199997e+00	1.199822e+00	1.200001e+00	
92	8.000000e-10	0.000000e+00	1.200000e+00	1.200000e+00	1.105749e-05	1.200000e+00	-9.506324e-08	-8.944209e-08	2.285725e-08	-1.427707e-07	1.200000e+00	1.200003e+00	1.199823e+00	1.199999e+00	
93	8.100000e-10	0.000000e+00	1.199999e+00	1.200000e+00	1.108680e-05	1.200000e+00	9.944347e-08	9.097007e-08	3.353337e-07	1.413873e-07	1.200000e+00	1.199997e+00	1.199822e+00	1.200001e+00	
94	8.200000e-10	0.000000e+00	1.200000e+00	1.200000e+00	1.105886e-05	1.200000e+00	-9.310335e-08	-8.703782e-08	6.366649e-08	-1.347446e-07	1.200000e+00	1.200003e+00	1.199823e+00	1.199999e+00	
95	8.300000e-10	0.000000e+00	1.199999e+00	1.200000e+00	1.108515e-05	1.200000e+00	9.747047e-08	8.853653e-08	3.004884e-07	1.335540e-07	1.200000e+00	1.199997e+00	1.199822e+00	1.200001e+00	
96	8.400000e-10	0.000000e+00	1.200000e+00	1.200000e+00	1.106003e-05	1.200000e+00	-9.113292e-08	-8.461484e-08	9.331611e-08	-1.271072e-07	1.200000e+00	1.200003e+00	1.199823e+00	1.200000e+00	
97	8.500000e-10	0.000000e+00	1.199999e+00	1.200000e+00	1.108388e-05	1.200000e+00	9.550458e-08	8.610748e-08	2.751626e-07	1.261086e-07	1.200000e+00	1.199997e+00	1.199822e+00	1.200000e+00	
98	8.600000e-10	0.000000e+00	1.200000e+00	1.200000e+00	1.106101e-05	1.200000e+00	-8.918115e-08	-8.220191e-08	1.149000e-07	-1.198536e-07	1.200000e+00	1.200002e+00	1.199823e+00	1.200000e+00	
99	8.700000e-10	0.000000e+00	1.199999e+00	1.200000e+00	1.108287e-05	1.200000e+00	9.356904e-08	8.370303e-08	2.567114e-07	1.190432e-07	1.200000e+00	1.199998e+00	1.199822e+00	1.200000e+00	
100	8.800000e-10	0.000000e+00	1.200000e+00	1.200000e+00	1.106185e-05	1.200000e+00	-8.726767e-08	-7.981840e-08	1.306532e-07	-1.129747e-07	1.200000e+00	1.200002e+00	1.199823e+00	1.200000e+00	
101	8.900000e-10	0.000000e+00	1.199999e+00	1.200000e+00	1.108204e-05	1.200000e+00	9.167935e-08	8.133714e-08	2.432272e-07	1.123469e-07	1.200000e+00	1.199998e+00	1.199822e+00	1.200000e+00	
102	9.000000e-10	0.000000e+00	1.200000e+00	1.200000e+00	1.106256e-05	1.200000e+00	-8.540527e-08	-7.747717e-08	1.421896e-07	-1.064581e-07	1.200000e+00	1.200002e+00	1.199823e+00	1.200000e+00	
103	9.100000e-10	0.000000e+00	1.199999e+00	1.200000e+00	1.108135e-05	1.200000e+00	8.984547e-08	7.901924e-08	2.333343e-07	1.060063e-07	1.200000e+00	1.199998e+00	1.199822e+00	1.200000e+00	
104	9.200000e-10	0.000000e+00	1.200000e+00	1.200000e+00	1.106318e-05	1.200000e+00	-8.360195e-08	-7.518657e-08	1.506748e-07	-1.002901e-07	1.200000e+00	1.200002e+00	1.199823e+00	1.200000e+00	
105	9.300000e-10	0.000000e+00	1.199999e+00	1.200000e+00	1.108075e-05	1.200000e+00	8.807343e-08	7.675544e-08	2.260399e-07	1.000069e-07	1.200000e+00	1.199998e+00	1.199822e+00	1.200000e+00	
106	9.400000e-10	0.000000e+00	1.200000e+00	1.200000e+00	1.106373e-05	1.200000e+00	-8.186228e-08	-7.295176e-08	1.569505e-07	-9.445580e-08	1.200000e+00	1.200002e+00	1.199823e+00	1.200000e+00	
107	9.500000e-10	0.000000e+00	1.199999e+00	1.200000e+00	1.108023e-05	1.200000e+00	8.636646e-08	7.454943e-08	2.206278e-07	9.433368e-08	1.200000e+00	1.199998e+00	1.199822e+00	1.200000e+00	
108	9.600000e-10	0.000000e+00	1.200000e+00	1.200000e+00	1.106421e-05	1.200000e+00	-8.018847e-08	-7.077570e-08	1.616246e-07	-8.893983e-08	1.200000e+00	1.200002e+00	1.199823e+00	1.200000e+00	
109	9.700000e-10	0.000000e+00	1.199999e+00	1.200000e+00	1.107977e-05	1.200000e+00	8.472584e-08	7.240317e-08	2.165806e-07	8.897111e-08	1.200000e+00	1.199998e+00	1.199822e+00	1.200000e+00	
110	9.800000e-10	0.000000e+00	1.200000e+00	1.200000e+00	1.106464e-05	1.200000e+00	-7.858108e-08	-6.865978e-08	1.651361e-07	-8.372688e-08	1.200000e+00	1.200002e+00	1.199823e+00	1.200000e+00	
111	9.900000e-10	0.000000e+00	1.199999e+00	1.200000e+00	1.107935e-05	1.200000e+00	8.315148e-08	7.031740e-08	2.135249e-07	8.390395e-08	1.200000e+00	1.199998e+00	1.199822e+00	1.200000e+00	
112	1.000000e-09	0.000000e+00	1.200000e+00	1.200000e+00	1.106504e-05	1.200000e+00	-7.703952e-08	-6.660432e-08	1.678022e-07	-7.880179e-08	1.200000e+00	1.200002e+00	1.199823e+00	1.200000e+00	
113	1.010000e-09	0.000000e+00	1.199999e+00	1.200000e+00	1.107897e-05	1.200000e+00	8.164235e-08	6.829201e-08	2.111910e-07	7.911722e-08	1.200000e+00	1.199998e+00	1.199822e+00	1.200000e+00	
114	1.020000e-09	0.000000e+00	1.200000e+00	1.200000e+00	1.106541e-05	1.200000e+00	-7.556245e-08	-6.460891e-08	1.698521e-07	-7.414978e-08	1.200000e+00	1.200002e+00	1.199823e+00	1.200000e+00	
115	1.030000e-09	0.000000e+00	1.199999e+00	1.200000e+00	1.107862e-05	1.200000e+00	8.019684e-08	6.632627e-08	2.093838e-07	7.459634e-08	1.200000e+00	1.199998e+00	1.199822e+00	1.200000e+00	
116	1.040000e-09	0.000000e+00	1.200000e+00	1.200000e+00	1.106574e-05	1.200000e+00	-7.414800e-08	-6.267262e-08	1.714514e-07	-6.975654e-08	1.200000e+00	1.200002e+00	1.199823e+00	1.200000e+00	
117	1.050000e-09	0.000000e+00	1.199999e+00	1.200000e+00	1.107830e-05	1.200000e+00	7.881291e-08	6.441907e-08	2.079623e-07	7.032730e-08	1.200000e+00	1.199998e+00	1.199822e+00	1.200000e+00	
118	1.060000e-09	0.000000e+00	1.200000e+00	1.200000e+00	1.106606e-05	1.200000e+00	-7.279402e-08	-6.079418e-08	1.727201e-07	-6.560833e-08	1.200000e+00	1.200002e+00	1.199823e+00	1.200000e+00	
119	1.070000e-09	0.000000e+00	1.199999e+00	1.200000e+00	1.107799e-05	1.200000e+00	7.748828e-08	6.256902e-08	2.068247e-07	6.629662e-08	1.200000e+00	1.199998e+00	1.199822e+00	1.200000e+00	
120	1.080000e-09	0.000000e+00	1.200000e+00	1.200000e+00	1.106635e-05	1.200000e+00	-7.149814e-08	-5.897214e-08	1.737450e-07	-6.169197e-08	1.200000e+00	1.200002e+00	1.199823e+00	1.200000e+00	
121	1.090000e-09	0.000000e+00	1.199999e+00	1.200000e+00	1.107770e-05	1.200000e+00	7.622055e-08	6.077457e-08	2.058970e-07	6.249144e-08	1.200000e+00	1.199998e+00	1.199822e+00	1.200000e+00	
122	1.100000e-09	0.000000e+00	1.200000e+00	1.200000e+00	1.106663e-05	1.200000e+00	-7.025795e-08	-5.720488e-08	1.745889e-07	-5.799490e-08	1.200000e+00	1.200002e+00	1.199823e+00	1.200000e+00	
123	1.110000e-09	0.000000e+00	1.199999e+00	1.200000e+00	1.107743e-05	1.200000e+00	7.500727e-08	5.903408e-08	2.051255e-07	5.889950e-08	1.200000e+00	1.199998e+00	1.199822e+00	1.200000e+00	
124	1.120000e-09	0.000000e+00	1.200000e+00	1.200000e+00	1.106689e-05	1.200000e+00	-6.907096e-08	-5.549073e-08	1.752975e-07	-5.450517e-08	1.200000e+00	1.200002e+00	1.199823e+00	1.200000e+00	
125	1.130000e-09	0.000000e+00	1.199999e+00	1.200000e+00	1.107718e-05	1.200000e+00	7.384596e-08	5.734585e-08	2.044715e-07	5.550913e-08	1.200000e+00	1.199998e+00	1.199822e+00	1.200000e+00	
126	1.140000e-09	0.000000e+00	1.200000e+00	1.200000e+00	1.106714e-05	1.200000e+00	-6.793473e-08	-5.382800e-08	1.759039e-07	-5.121140e-08	1.200000e+00	1.200002e+00	1.199823e+00	1.200000e+00	
127	1.150000e-09	0.000000e+00	1.199999e+00	1.200000e+00	1.107694e-05	1.200000e+00	7.273422e-08	5.570818e-08	2.039066e-07	5.230927e-08	1.200000e+00	1.199998e+00	1.199822e+00	1.200000e+00	
128	1.160000e-09	0.000000e+00	1.200000e+00	1.200000e+00	1.106738e-05	1.200000e+00	-6.684688e-08	-5.221497e-08	1.764324e-07	-4.810282e-08	1.200000e+00	1.200002e+00	1.199823e+00	1.200000e+00	
129	1.170000e-09	0.000000e+00	1.199999e+00	1.200000e+00	1.107671e-05	1.200000e+00	7.166968e-08	5.411938e-08	2.034101e-07	4.928941e-08	1.200000e+00	1.199998e+00	1.199822e+00	1.200000e+00	
130	1.180000e-09	0.000000e+00	1.200000e+00	1.200000e+00	1.106760e-05	1.200000e+00	-6.580508e-08	-5.064998e-08	1.769006e-07	-4.516920e-08	1.200000e+00	1.200002e+00	1.199823e+00	1.200000e+00	
131	1.190000e-09	0.000000e+00	1.199999e+00	1.200000e+00	1.107649e-05	1.200000e+00	7.065006e-08	5.257779e-08	2.029670e-07	4.643961e-08	1.200000e+00	1.199998e+00	1.199822e+00	1.200000e+00	
132	1.200000e-09	0.000000e+00	1.200000e+00	1.200000e+00	1.106781e-05	1.200000e+00	-6.480709e-08	-4.913138e-08	1.773215e-07	-4.240087e-08	1.200000e+00	1.200002e+00	1.199823e+00	1.200000e+00	
133	1.210000e-09	0.000000e+00	1.199999e+00	1.200000e+00	1.107628e-05	1.200000e+00	6.967315e-08	5.108178e-08	2.025661e-07	4.375046e-08	1.200000e+00	1.199998e+00	1.199822e+00	1.200000e+00	
134	1.220000e-09	0.000000e+00	1.200000e+00	1.200000e+00	1.106802e-05	1.200000e+00	-6.385075e-08	-4.765758e-08	1.777044e-07	-3.978867e-08	1.200000e+00	1.200002e+00	1.199823e+00	1.200000e+00	
135	1.230000e-09	0.000000e+00	1.199999e+00	1.200000e+00	1.107608e-05	1.200000e+00	6.873686e-08	4.962979e-08	2.021993e-07	4.121305e-08	1.200000e+00	1.199998e+00	1.199822e+00	1.200000e+00	
136	1.240000e-09	0.000000e+00	1.200000e+00	1.200000e+00	1.106821e-05	1.200000e+00	-6.293400e-08	-4.622702e-08	1.780567e-07	-3.732394e-08	1.200000e+00	1.200002e+00	1.199823e+00	1.200000e+00	
137	1.250000e-09	0.000000e+00	1.199999e+00	1.200000e+00	1.107589e-05	1.200000e+00	6.783917e-08	4.822030e-08	2.018603e-07	3.881895e-08	1.200000e+00	1.199998e+00	1.199822e+00	1.200000e+00	
138	1.260000e-09	0.000000e+00	1.200000e+00	1.200000e+00	1.106839e-05	1.200000e+00	-6.205489e-08	-4.483822e-08	1.783834e-07	-3.499849e-08	1.200000e+00	1.200002e+00	1.199823e+00	1.200000e+00	
139	1.270000e-09	0.000000e+00	1.199999e+00	1.200000e+00	1.107571e-05	1.200000e+00	6.697817e-08	4.685182e-08	2.015448e-07	3.656020e-08	1.200000e+00	1.199998e+00	1.199822e+00	1.200000e+00	
140	1.280000e-09	0.000000e+00	1.200000e+00	1.200000e+00	1.106857e-05	1.200000e+00	-6.121154e-08	-4.348972e-08	1.786886e-07	-3.280456e-08	1.200000e+00	1.200002e+00	1.199823e+00	1.200000e+00	
141	1.290000e-09	0.000000e+00	1.199999e+00	1.200000e+00	1.107554e-05	1.200000e+00	6.615202e-08	4.552296e-08	2.012492e-07	3.442927e-08	1.200000e+00	1.199998e+00	1.199822e+00	1.200000e+00	
142	1.300000e-09	0.000000e+00	1.200000e+00	1.200000e+00	1.106874e-05	1.200000e+00	-6.040217e-08	-4.218015e-08	1.789753e-07	-3.073483e-08	1.200000e+00	1.200002e+00	1.199823e+00	1.200000e+00	
143	1.310000e-09	0.000000e+00	1.199999e+00	1.200000e+00	1.107538e-05	1.200000e+00	6.535900e-08	4.423234e-08	2.009708e-07	3.241903e-08	1.200000e+00	1.199998e+00	1.199822e+00	1.200000e+00	
144	1.320000e-09	0.000000e+00	1.200000e+00	1.200000e+00	1.106890e-05	1.200000e+00	-5.962508e-08	-4.090816e-08	1.792458e-07	-2.878240e-08	1.200000e+00	1.200002e+00	1.199823e+00	1.200000e+00	
145	1.330000e-09	0.000000e+00	1.199999e+00	1.200000e+00	1.107522e-05	1.200000e+00	6.459746e-08	4.297866e-08	2.007077e-07	3.052276e-08	1.200000e+00	1.199998e+00	1.199822e+00	1.200000e+00	
146	1.340000e-09	0.000000e+00	1.200000e+00	1.200000e+00	1.106905e-05	1.200000e+00	-5.887868e-08	-3.967248e-08	1.795019e-07	-2.694072e-08	1.200000e+00	1.200002e+00	1.199823e+00	1.200000e+00	
147	1.350000e-09	0.000000e+00	1.199999e+00	1.200000e+00	1.107507e-05	1.200000e+00	6.386582e-08	4.176067e-08	2.004582e-07	2.873412e-08	1.200000e+00	1.199998e+00	1.199822e+00	1.200000e+00	
148	1.360000e-09	0.000000e+00	1.200000e+00	1.200000e+00	1.106920e-05	1.200000e+00	-5.816145e-08	-3.847188e-08	1.797452e-07	-2.520361e-08	1.200000e+00	1.200002e+00	1.199823e+00	1.200000e+00	
149	1.370000e-09	0.000000e+00	1.199999e+00	1.200000e+00	1.107493e-05	1.200000e+00	6.316262e-08	4.057716e-08	2.002210e-07	2.704709e-08	1.200000e+00	1.199998e+00	1.199822e+00	1.200000e+00	
150	1.380000e-09	0.000000e+00	1.200000e+00	1.200000e+00	1.106934e-05	1.200000e+00	-5.747193e-08	-3.730516e-08	1.799766e-07	-2.356525e-08	1.200000e+00	1.200002e+00	1.199823e+00	1.200000e+00	
151	1.390000e-09	0.000000e+00	1.199999e+00	1.200000e+00	1.107479e-05	1.200000e+00	6.248644e-08	3.942697e-08	1.999950e-07	2.545601e-08	1.200000e+00	1.199998e+00	1.199822e+00	1.200000e+00	
152	1.400000e-09	0.000000e+00	1.200000e+00	1.200000e+00	1.106948e-05	1.200000e+00	-5.680875e-08	-3.617121e-08	1.801973e-07	-2.202011e-08	1.200000e+00	1.200002e+00	1.199823e+00	1.200000e+00	
153	1.410000e-09	0.000000e+00	1.199999e+00	1.200000e+00	1.107466e-05	1.200000e+00	6.183595e-08	3.830899e-08	1.997794e-07	2.395552e-08	1.200000e+00	1.199998e+00	1.199822e+00	1.200000e+00	
154	1.420000e-09	0.000000e+00	1.200000e+00	1.200000e+00	1.106961e-05	1.200000e+00	-5.617063e-08	-3.506894e-08	1.804080e-07	-2.056299e-08	1.200000e+00	1.200002e+00	1.199823e+00	1.200000e+00	
155	1.430000e-09	0.000000e+00	1.199999e+00	1.200000e+00	1.107453e-05	1.200000e+00	6.120989e-08	3.722215e-08	1.995735e-07	2.254055e-08	1.200000e+00	1.199998e+00	1.199822e+00	1.200000e+00	
156	1.440000e-09	0.000000e+00	1.200000e+00	1.200000e+00	1.106973e-05	1.200000e+00	-5.555633e-08	-3.399729e-08	1.806094e-07	-1.918898e-08	1.200000e+00	1.200002e+00	1.199823e+00	1.200000e+00	
157	1.450000e-09	0.000000e+00	1.199999e+00	1.200000e+00	1.107441e-05	1.200000e+00	6.060705e-08	3.616544e-08	1.993765e-07	2.120633e-08	1.200000e+00	1.199998e+00	1.199822e+00	1.200000e+00	
158	1.460000e-09	0.000000e+00	1.200000e+00	1.200000e+00	1.106985e-05	1.200000e+00	-5.496468e-08	-3.295527e-08	1.808021e-07	-1.789342e-08	1.200000e+00	1.200002e+00	1.199823e+00	1.200000e+00	
159	1.470000e-09	0.000000e+00	1.199999e+00	1.200000e+00	1.107429e-05	1.200000e+00	6.002631e-08	3.513787e-08	1.991880e-07	1.994834e-08	1.200000e+00	1.199998e+00	1.199822e+00	1.200000e+00	
160	1.480000e-09	0.000000e+00	1.200000e+00	1.200000e+00	1.106996e-05	1.200000e+00	-5.439458e-08	-3.194192e-08	1.809865e-07	-1.667194e-08	1.200000e+00	1.200002e+00	1.199823e+00	1.200000e+00	
161	1.490000e-09	0.000000e+00	1.199999e+00	1.200000e+00	1.107418e-05	1.200000e+00	5.946659e-08	3.413850e-08	1.990074e-07	1.876232e-08	1.200000e+00	1.199998e+00	1.199822e+00	1.200000e+00	
162	1.500000e-09	0.000000e+00	1.200000e+00	1.200000e+00	1.107007e-05	1.200000e+00	-5.384498e-08	-3.095631e-08	1.811633e-07	-1.552038e-08	1.200000e+00	1.200002e+00	1.199823e+00	1.200000e+00	
163	1.510000e-09	0.000000e+00	1.199999e+00	1.200000e+00	1.107408e-05	1.200000e+00	5.892686e-08	3.316643e-08	1.988343e-07	1.764425e-08	1.200000e+00	1.199998e+00	1.199822e+00	1.200000e+00	
164	1.520000e-09	0.000000e+00	1.200000e+00	1.200000e+00	1.107017e-05	1.200000e+00	-5.331489e-08	-2.999755e-08	1.813328e-07	-1.443483e-08	1.200000e+00	1.200002e+00	1.199823e+00	1.200000e+00	
165	1.530000e-09	0.000000e+00	1.199999e+00	1.200000e+00	1.107397e-05	1.200000e+00	5.840617e-08	3.222078e-08	1.986684e-07	1.659030e-08	1.200000e+00	1.199998e+00	1.199822e+00	1.200000e+00	
166	1.540000e-09	0.000000e+00	1.200000e+00	1.200000e+00	1.107027e-05	1.200000e+00	-5.280337e-08	-2.906480e-08	1.814954e-07	-1.341159e-08	1.200000e+00	1.200002e+00	1.199823e+00	1.200000e+00	
167	1.550000e-09	0.000000e+00	1.199999e+00	1.200000e+00	1.107388e-05	1.200000e+00	5.790360e-08	3.130073e-08	1.985091e-07	1.559690e-08	1.200000e+00	1.199998e+00	1.199822e+00	1.200000e+00	
168	1.560000e-09	0.000000e+00	1.200000e+00	1.200000e+00	1.107037e-05	1.200000e+00	-5.230953e-08	-2.815724e-08	1.816514e-07	-1.244718e-08	1.200000e+00	1.200002e+00	1.199823e+00	1.200000e+00	
169	1.570000e-09	0.000000e+00	1.199999e+00	1.200000e+00	1.107378e-05	1.200000e+00	5.741828e-08	3.040546e-08	1.983562e-07	1.466065e-08	1.200000e+00	1.199998e+00	1.199822e+00	1.200000e+00	
170	1.580000e-09	0.000000e+00	1.200000e+00	1.200000e+00	1.107046e-05	1.200000e+00	-5.183252e-08	-2.727408e-08	1.818012e-07	-1.153829e-08	1.200000e+00	1.200002e+00	1.199823e+00	1.200000e+00	
171	1.590000e-09	0.000000e+00	1.199999e+00	1.200000e+00	1.107369e-05	1.200000e+00	5.694939e-08	2.953422e-08	1.982094e-07	1.377834e-08	1.200000e+00	1.199998e+00	1.199822e+00	1.200000e+00	
172	1.600000e-09	0.000000e+00	1.200000e+00	1.200000e+00	1.107055e-05	1.200000e+00	-5.137155e-08	-2.641457e-08	1.819451e-07	-1.068181e-08	1.200000e+00	1.200002e+00	1.199823e+00	1.200000e+00	
173	1.610000e-09	0.000000e+00	1.199999e+00	1.200000e+00	1.107361e-05	1.200000e+00	5.649615e-08	2.868625e-08	1.980684e-07	1.294696e-08	1.200000e+00	1.199998e+00	1.199822e+00	1.200000e+00	
174	1.620000e-09	0.000000e+00	1.200000e+00	1.200000e+00	1.107063e-05	1.200000e+00	-5.092585e-08	-2.557797e-08	1.820834e-07	-9.874801e-09	1.200000e+00	1.200002e+00	1.199823e+00	1.200000e+00	
175	1.630000e-09	0.000000e+00	1.199999e+00	1.200000e+00	1.107352e-05	1.200000e+00	5.605781e-08	2.786085e-08	1.979328e-07	1.216363e-08	1.200000e+00	1.199998e+00	1.199822e+00	1.200000e+00	
176	1.640000e-09	0.000000e+00	1.200000e+00	1.200000e+00	1.107071e-05	1.200000e+00	-5.049470e-08	-2.476359e-08	1.822163e-07	-9.114480e-09	1.200000e+00	1.200002e+00	1.199823e+00	1.200000e+00	
177	1.650000e-09	0.000000e+00	1.199999e+00	1.200000e+00	1.107345e-05	1.200000e+00	5.563369e-08	2.705733e-08	1.978025e-07	1.142566e-08	1.200000e+00	1.199998e+00	1.199822e+00	1.200000e+00	
178	1.660000e-09	0.000000e+00	1.200000e+00	1.200000e+00	1.107079e-05	1.200000e+00	-5.007743e-08	-2.397076e-08	1.823441e-07	-8.398227e-09	1.200000e+00	1.200002e+00	1.199823e+00	1.200000e+00	
179	1.670000e-09	0.000000e+00	1.199999e+00	1.200000e+00	1.107337e-05	1.200000e+00	5.522311e-08	2.627502e-08	1.976772e-07	1.073050e-08	1.200000e+00	1.199998e+00	1.199822e+00	1.200000e+00	
180	1.680000e-09	0.000000e+00	1.200000e+00	1.200000e+00	1.107087e-05	1.200000e+00	-4.967339e-08	-2.319883e-08	1.824670e-07	-7.723564e-09	1.200000e+00	1.200002e+00	1.199823e+00	1.200000e+00	
181	1.690000e-09	0.000000e+00	1.199999e+00	1.200000e+00	1.107330e-05	1.200000e+00	5.482545e-08	2.551330e-08	1.975566e-07	1.007575e-08	1.200000e+00	1.199998e+00	1.199822e+00	1.200000e+00	
182	1.700000e-09	0.000000e+00	1.200000e+00	1.200000e+00	1.107094e-05	1.200000e+00	-4.928196e-08	-2.244717e-08	1.825853e-07	-7.088152e-09	1.200000e+00	1.200002e+00	1.199823e+00	1.200000e+00	
183	1.710000e-09	0.000000e+00	1.199999e+00	1.200000e+00	1.107323e-05	1.200000e+00	5.444010e-08	2.477156e-08	1.974405e-07	9.459124e-09	1.200000e+00	1.199998e+00	1.199822e+00	1.200000e+00	
184	1.720000e-09	0.000000e+00	1.200000e+00	1.200000e+00	1.107101e-05	1.200000e+00	-4.890256e-08	-2.171519e-08	1.826992e-07	-6.489780e-09	1.200000e+00	1.200002e+00	1.199823e+00	1.200000e+00	
185	1.730000e-09	0.000000e+00	1.199999e+00	1.200000e+00	1.107316e-05	1.200000e+00	5.406651e-08	2.404920e-08	1.973288e-07	8.878483e-09	1.200000e+00	1.199998e+00	1.199822e+00	1.200000e+00	
186	1.740000e-09	0.000000e+00	1.200000e+00	1.200000e+00	1.107107e-05	1.200000e+00	-4.853464e-08	-2.100230e-08	1.828088e-07	-5.926362e-09	1.200000e+00	1.200002e+00	1.199823e+00	1.200000e+00	
187	1.750000e-09	0.000000e+00	1.199999e+00	1.200000e+00	1.107309e-05	1.200000e+00	5.370413e-08	2.334565e-08	1.972212e-07	8.331797e-09	1.200000e+00	1.199999e+00	1.199822e+00	1.200000e+00	
188	1.760000e-09	0.000000e+00	1.200000e+00	1.200000e+00	1.107114e-05	1.200000e+00	-4.817767e-08	-2.030796e-08	1.829144e-07	-5.395929e-09	1.200000e+00	1.200001e+00	1.199823e+00	1.200000e+00	
189	1.770000e-09	0.000000e+00	1.199999e+00	1.200000e+00	1.107303e-05	1.200000e+00	5.335246e-08	2.266038e-08	1.971175e-07	7.817152e-09	1.200000e+00	1.199999e+00	1.199822e+00	1.200000e+00	
190	1.780000e-09	0.000000e+00	1.200000e+00	1.200000e+00	1.107120e-05	1.200000e+00	-4.783117e-08	-1.963162e-08	1.830162e-07	-4.896620e-09	1.200000e+00	1.200001e+00	1.199823e+00	1.200000e+00	
191	1.790000e-09	0.000000e+00	1.199999e+00	1.200000e+00	1.107297e-05	1.200000e+00	5.301100e-08	2.199284e-08	1.970176e-07	7.332740e-09	1.200000e+00	1.199999e+00	1.199822e+00	1.200000e+00	
192	1.800000e-09	0.000000e+00	1.200000e+00	1.200000e+00	1.107125e-05	1.200000e+00	-4.749465e-08	-1.897276e-08	1.831143e-07	-4.426678e-09	1.200000e+00	1.200001e+00	1.199823e+00	1.200000e+00	
193	1.810000e-09	0.000000e+00	1.199999e+00	1.200000e+00	1.107292e-05	1.200000e+00	5.267931e-08	2.134254e-08	1.969213e-07	6.876853e-09	1.200000e+00	1.199999e+00	1.199822e+00	1.200000e+00	
194	1.820000e-09	0.000000e+00	1.200000e+00	1.200000e+00	1.107131e-05	1.200000e+00	-4.716767e-08	-1.833089e-08	1.832088e-07	-3.984443e-09	1.200000e+00	1.200001e+00	1.199823e+00	1.200000e+00	
195	1.830000e-09	0.000000e+00	1.199999e+00	1.200000e+00	1.107286e-05	1.200000e+00	5.235694e-08	2.070898e-08	1.968285e-07	6.447879e-09	1.200000e+00	1.199999e+00	1.199822e+00	1.200000e+00	
196	1.840000e-09	0.000000e+00	1.200000e+00	1.200000e+00	1.107136e-05	1.200000e+00	-4.684981e-08	-1.770552e-08	1.833000e-07	-3.568350e-09	1.200000e+00	1.200001e+00	1.199823e+00	1.200000e+00	
197	1.850000e-09	0.000000e+00	1.199999e+00	1.200000e+00	1.107281e-05	1.200000e+00	5.204348e-08	2.009169e-08	1.967389e-07	6.044297e-09	1.200000e+00	1.199999e+00	1.199822e+00	1.200000e+00	
198	1.860000e-09	0.000000e+00	1.200000e+00	1.200000e+00	1.107142e-05	1.200000e+00	-4.654065e-08	-1.709619e-08	1.833880e-07	-3.176919e-09	1.200000e+00	1.200001e+00	1.199823e+00	1.200000e+00	
199	1.870000e-09	0.000000e+00	1.199999e+00	1.200000e+00	1.107276e-05	1.200000e+00	5.173854e-08	1.949020e-08	1.966524e-07	5.664668e-09	1.200000e+00	1.199999e+00	1.199822e+00	1.200000e+00	
200	1.880000e-09	0.000000e+00	1.200000e+00	1.200000e+00	1.107147e-05	1.200000e+00	-4.623983e-08	-1.650245e-08	1.834729e-07	-2.808754e-09	1.200000e+00	1.200001e+00	1.199823e+00	1.200000e+00	
201	1.890000e-09	0.000000e+00	1.199999e+00	1.200000e+00	1.107271e-05	1.200000e+00	5.144174e-08	1.890409e-08	1.965690e-07	5.307636e-09	1.200000e+00	1.199999e+00	1.199822e+00	1.200000e+00	
202	1.900000e-09	0.000000e+00	1.200000e+00	1.200000e+00	1.107151e-05	1.200000e+00	-4.594697e-08	-1.592386e-08	1.835549e-07	-2.462535e-09	1.200000e+00	1.200001e+00	1.199823e+00	1.200000e+00	
203	1.910000e-09	0.000000e+00	1.199999e+00	1.200000e+00	1.107266e-05	1.200000e+00	5.115273e-08	1.833292e-08	1.964885e-07	4.971920e-09	1.200000e+00	1.199999e+00	1.199822e+00	1.200000e+00	
204	1.920000e-09	0.000000e+00	1.200000e+00	1.200000e+00	1.107156e-05	1.200000e+00	-4.566173e-08	-1.536001e-08	1.836341e-07	-2.137018e-09	1.200000e+00	1.200001e+00	1.199823e+00	1.200000e+00	
205	1.930000e-09	0.000000e+00	1.199999e+00	1.200000e+00	1.107262e-05	1.200000e+00	5.087118e-08	1.777628e-08	1.964106e-07	4.656308e-09	1.200000e+00	1.199999e+00	1.199822e+00	1.200000e+00	
206	1.940000e-09	0.000000e+00	1.200000e+00	1.200000e+00	1.107160e-05	1.200000e+00	-4.538379e-08	-1.481048e-08	1.837105e-07	-1.831027e-09	1.200000e+00	1.200001e+00	1.199823e+00	1.200000e+00	
207	1.950000e-09	0.000000e+00	1.199999e+00	1.200000e+00	1.107257e-05	1.200000e+00	5.059676e-08	1.723377e-08	1.963355e-07	4.359660e-09	1.200000e+00	1.199999e+00	1.199822e+00	1.200000e+00	
208	1.960000e-09	0.000000e+00	1.200000e+00	1.200000e+00	1.107165e-05	1.200000e+00	-4.511282e-08	-1.427489e-08	1.837844e-07	-1.543451e-09	1.200000e+00	1.200001e+00	1.199823e+00	1.200000e+00	
209	1.970000e-09	0.000000e+00	1.199999e+00	1.200000e+00	1.107253e-05	1.200000e+00	5.032917e-08	1.670501e-08	1.962628e-07	4.080895e-09	1.200000e+00	1.199999e+00	1.199822e+00	1.200000e+00	
210	1.980000e-09	0.000000e+00	1.200000e+00	1.200000e+00	1.107169e-05	1.200000e+00	-4.484853e-08	-1.375287e-08	1.838559e-07	-1.273243e-09	1.200000e+00	1.200001e+00	1.199823e+00	1.200000e+00	
211	1.990000e-09	0.000000e+00	1.199999e+00	1.200000e+00	1.107249e-05	1.200000e+00	5.006812e-08	1.618962e-08	1.961926e-07	3.818996e-09	1.200000e+00	1.199999e+00	1.199822e+00	1.200000e+00	
212	2.000000e-09	0.000000e+00	1.200000e+00	1.200000e+00	1.107172e-05	1.200000e+00	-4.459065e-08	-1.324403e-08	1.839250e-07	-1.019414e-09	1.200000e+00	1.200001e+00	1.199823e+00	1.200000e+00	

                                                                                                              * spice from s1000s
                                                                                                              Transient Analysis  Fri Feb 20 21:56:54  2009
------------------------------------------------------------------------------------------------------------------------------------------------------------------------------------------------------------------------------------------------
Index   time            m.x1.m2#body    m.x1.m2#dbody   m.x1.m2#gate    m.x1.m2#sbody   n0              n1              n2              n3              n4              nseg_node_5     nseg_node_6     time            vdd             
------------------------------------------------------------------------------------------------------------------------------------------------------------------------------------------------------------------------------------------------
0	0.000000e+00	2.695134e-09	1.356642e-09	1.901597e-07	1.347567e-09	0.000000e+00	0.000000e+00	0.000000e+00	1.200000e+00	1.200000e+00	0.000000e+00	0.000000e+00	0.000000e+00	1.200000e+00	
1	1.000000e-13	-1.306650e-06	-5.379472e-06	-5.899255e-06	-4.005881e-07	1.132464e-05	-1.520312e-07	-1.520233e-07	1.199978e+00	1.199978e+00	2.178059e-07	1.265047e-09	1.000000e-13	1.200000e+00	
2	2.000000e-13	-1.226887e-06	-5.109857e-06	-8.974242e-06	-5.312703e-07	2.127400e-05	-5.311271e-07	-5.311070e-07	1.199963e+00	1.199963e+00	6.186000e-07	2.898928e-09	2.000000e-13	1.200000e+00	
3	4.000000e-13	-8.808828e-07	-3.735371e-06	-1.274616e-05	-5.259560e-07	3.937397e-05	-1.558272e-06	-1.558237e-06	1.199937e+00	1.199937e+00	1.737528e-06	7.806326e-09	4.000000e-13	1.200000e+00	
4	8.000000e-13	-4.663416e-07	-2.127838e-06	-1.396368e-05	-2.381442e-07	6.775771e-05	-4.167380e-06	-4.167339e-06	1.199903e+00	1.199903e+00	5.450498e-06	6.081431e-08	8.000000e-13	1.200000e+00	
5	1.600000e-12	-1.713700e-07	-8.125657e-07	-1.190182e-05	-1.020981e-07	1.049703e-04	-7.759884e-06	-7.759855e-06	1.199867e+00	1.199867e+00	1.591129e-05	6.946987e-07	1.600000e-12	1.200000e+00	
6	3.200000e-12	1.108064e-08	4.274335e-09	-7.984610e-06	1.291346e-08	1.411323e-04	-7.114012e-06	-7.114004e-06	1.199848e+00	1.199848e+00	3.873935e-05	5.179302e-06	3.200000e-12	1.200000e+00	
7	6.400000e-12	1.447011e-08	-4.226089e-08	5.142777e-06	3.554419e-10	1.659854e-04	7.532479e-06	7.532481e-06	1.199845e+00	1.199845e+00	7.396861e-05	2.321037e-05	6.400000e-12	1.200000e+00	
8	1.280000e-11	4.082721e-08	7.334441e-08	4.459882e-05	2.677409e-08	1.819521e-04	4.690265e-05	4.690266e-05	1.199846e+00	1.199846e+00	1.133462e-04	6.500923e-05	1.280000e-11	1.200000e+00	
9	2.280000e-11	8.667356e-09	-5.195160e-08	1.007776e-04	-1.669107e-09	1.949678e-04	1.027575e-04	1.027575e-04	1.199845e+00	1.199845e+00	1.479682e-04	1.153218e-04	2.280000e-11	1.200000e+00	
10	3.280000e-11	2.885285e-08	6.560653e-08	1.427822e-04	2.015475e-08	2.036261e-04	1.439158e-04	1.439158e-04	1.199844e+00	1.199844e+00	1.721453e-04	1.504883e-04	3.280000e-11	1.200000e+00	
11	4.280000e-11	-6.049345e-10	-5.450972e-08	1.723046e-04	-5.705576e-09	2.100019e-04	1.732499e-04	1.732499e-04	1.199843e+00	1.199843e+00	1.893419e-04	1.760548e-04	4.280000e-11	1.200000e+00	
12	5.280000e-11	2.249330e-08	6.317479e-08	1.938815e-04	1.637211e-08	2.144721e-04	1.943475e-04	1.943475e-04	1.199843e+00	1.199843e+00	2.018056e-04	1.942300e-04	5.280000e-11	1.200000e+00	
13	6.280000e-11	-5.415157e-09	-5.634485e-08	2.090327e-04	-7.532415e-09	2.177605e-04	2.094513e-04	2.094513e-04	1.199843e+00	1.199843e+00	2.106682e-04	2.073475e-04	6.280000e-11	1.200000e+00	
14	7.280000e-11	1.926372e-08	6.221425e-08	2.201725e-04	1.418360e-08	2.200503e-04	2.202965e-04	2.202965e-04	1.199843e+00	1.199843e+00	2.170674e-04	2.167120e-04	7.280000e-11	1.200000e+00	
15	8.280000e-11	-7.918666e-09	-5.750001e-08	2.279256e-04	-8.229206e-09	2.217517e-04	2.280711e-04	2.280711e-04	1.199842e+00	1.199842e+00	2.216329e-04	2.234520e-04	8.280000e-11	1.200000e+00	
16	9.280000e-11	1.762399e-08	6.189597e-08	2.336950e-04	1.281719e-08	2.229191e-04	2.336454e-04	2.336454e-04	1.199842e+00	1.199842e+00	2.249209e-04	2.282728e-04	9.280000e-11	1.200000e+00	
17	1.028000e-10	-9.222664e-09	-5.824912e-08	2.376454e-04	-8.350323e-09	2.238054e-04	2.376482e-04	2.376482e-04	1.199842e+00	1.199842e+00	2.272714e-04	2.317377e-04	1.028000e-10	1.200000e+00	
18	1.128000e-10	1.679269e-08	6.187179e-08	2.406494e-04	1.188091e-08	2.243944e-04	2.405125e-04	2.405124e-04	1.199842e+00	1.199842e+00	2.289616e-04	2.342186e-04	1.128000e-10	1.200000e+00	
19	1.228000e-10	-9.902098e-09	-5.876119e-08	2.426464e-04	-8.183285e-09	2.248620e-04	2.425741e-04	2.425741e-04	1.199842e+00	1.199842e+00	2.301712e-04	2.360003e-04	1.228000e-10	1.200000e+00	
20	1.328000e-10	1.637052e-08	6.197398e-08	2.442255e-04	1.117406e-08	2.251531e-04	2.440451e-04	2.440451e-04	1.199842e+00	1.199842e+00	2.310403e-04	2.372769e-04	1.328000e-10	1.200000e+00	
21	1.428000e-10	-1.025393e-08	-5.912727e-08	2.452201e-04	-7.876185e-09	2.254056e-04	2.451077e-04	2.451077e-04	1.199842e+00	1.199842e+00	2.316627e-04	2.381930e-04	1.428000e-10	1.200000e+00	
22	1.528000e-10	1.615281e-08	6.211775e-08	2.460640e-04	1.059335e-08	2.255434e-04	2.458626e-04	2.458625e-04	1.199842e+00	1.199842e+00	2.321097e-04	2.388499e-04	1.528000e-10	1.200000e+00	
23	1.628000e-10	-1.043156e-08	-5.939531e-08	2.465449e-04	-7.505120e-09	2.256851e-04	2.464108e-04	2.464107e-04	1.199842e+00	1.199842e+00	2.324299e-04	2.393210e-04	1.628000e-10	1.200000e+00	
24	1.728000e-10	1.603485e-08	6.226028e-08	2.470087e-04	1.008555e-08	2.257443e-04	2.467976e-04	2.467976e-04	1.199842e+00	1.199842e+00	2.326598e-04	2.396590e-04	1.728000e-10	1.200000e+00	
25	1.828000e-10	-1.051458e-08	-5.959123e-08	2.472272e-04	-7.109169e-09	2.258288e-04	2.470809e-04	2.470809e-04	1.199842e+00	1.199842e+00	2.328245e-04	2.399013e-04	1.828000e-10	1.200000e+00	
26	1.928000e-10	1.596350e-08	6.238100e-08	2.474940e-04	9.623204e-09	2.258478e-04	2.472787e-04	2.472787e-04	1.199842e+00	1.199842e+00	2.329428e-04	2.400752e-04	1.928000e-10	1.200000e+00	
27	2.000000e-10	-1.053552e-08	-5.974527e-08	2.475426e-04	-6.625408e-09	2.258947e-04	2.473894e-04	2.473894e-04	1.199842e+00	1.199842e+00	2.330062e-04	2.401685e-04	2.000000e-10	1.200000e+00	
28	2.010000e-10	-6.000248e-09	-9.750839e-09	2.458184e-04	-3.214596e-09	-2.473198e-04	2.449414e-04	2.449414e-04	1.199842e+00	1.199842e+00	1.639534e-04	2.299625e-04	2.010000e-10	1.200000e+00	
29	2.030000e-10	-4.814477e-08	-6.065291e-08	2.335317e-04	-2.263666e-08	-1.212636e-03	2.291700e-04	2.291700e-04	1.199840e+00	1.199840e+00	-7.997868e-05	1.782819e-04	2.030000e-10	1.200000e+00	
30	2.070000e-10	-1.946261e-07	-1.946400e-07	1.256540e-04	-9.642878e-08	-1.797045e-03	1.080046e-04	1.080045e-04	1.199831e+00	1.199831e+00	-6.532422e-04	-6.820124e-05	2.070000e-10	1.200000e+00	
31	2.150000e-10	-1.511303e-07	-3.467959e-08	-2.116220e-04	-7.675864e-08	-5.966056e-05	-2.289314e-04	-2.289316e-04	1.199823e+00	1.199823e+00	-5.633139e-04	-3.957944e-04	2.150000e-10	1.200000e+00	
32	2.250000e-10	7.755390e-07	7.317977e-07	4.455108e-04	3.831788e-07	8.975998e-03	5.148622e-04	5.148626e-04	1.199891e+00	1.199891e+00	3.421248e-03	1.179887e-03	2.250000e-10	1.200000e+00	
33	2.350000e-10	3.030080e-06	2.265661e-06	4.873628e-03	1.505516e-06	3.330138e-02	5.164983e-03	5.164985e-03	1.200083e+00	1.200083e+00	1.600366e-02	7.974955e-03	2.350000e-10	1.200000e+00	
34	2.450000e-10	6.855324e-06	4.586583e-06	1.673328e-02	3.413195e-06	7.471502e-02	1.741734e-02	1.741735e-02	1.200417e+00	1.200417e+00	4.132177e-02	2.397760e-02	2.450000e-10	1.200000e+00	
35	2.550000e-10	1.175412e-05	6.996791e-06	3.971566e-02	5.860749e-06	1.365269e-01	4.094429e-02	4.094430e-02	1.200816e+00	1.200816e+00	8.217489e-02	5.262690e-02	2.550000e-10	1.200000e+00	
36	2.650000e-10	1.916702e-05	1.065352e-05	7.914305e-02	9.553383e-06	2.458367e-01	8.124989e-02	8.124990e-02	1.201201e+00	1.201201e+00	1.512736e-01	1.010053e-01	2.650000e-10	1.200000e+00	
37	2.750000e-10	2.962085e-05	9.742959e-06	1.458559e-01	1.477488e-05	4.279818e-01	1.495674e-01	1.495675e-01	1.200504e+00	1.200504e+00	2.689670e-01	1.833509e-01	2.750000e-10	1.200000e+00	
38	2.850000e-10	2.815801e-05	-4.713340e-05	2.504680e-01	1.412275e-05	6.539048e-01	2.568407e-01	2.568407e-01	1.188930e+00	1.188930e+00	4.351045e-01	3.090429e-01	2.850000e-10	1.200000e+00	
39	2.950000e-10	-1.214379e-05	-2.912764e-04	3.876668e-01	-5.864279e-06	8.616984e-01	3.982630e-01	3.982630e-01	1.128854e+00	1.128854e+00	6.187238e-01	4.666297e-01	2.950000e-10	1.200000e+00	
40	3.050000e-10	-1.251840e-04	-8.294433e-04	5.393719e-01	-6.209251e-05	9.928296e-01	5.523288e-01	5.523289e-01	9.504105e-01	9.504105e-01	7.762484e-01	6.263114e-01	3.050000e-10	1.200000e+00	
41	3.150000e-10	-4.595798e-04	-2.205081e-03	6.656469e-01	-2.282006e-04	1.058222e+00	6.849671e-01	6.849672e-01	5.136841e-01	5.136841e-01	8.863222e-01	7.578517e-01	3.150000e-10	1.200000e+00	
42	3.250000e-10	-1.544315e-04	-8.262011e-04	7.840985e-01	-8.066045e-05	1.097700e+00	8.010190e-01	8.010190e-01	1.265751e-01	1.265751e-01	9.621016e-01	8.588527e-01	3.250000e-10	1.200000e+00	
43	3.260000e-10	-8.585427e-05	-4.663415e-04	7.988202e-01	-4.515938e-05	1.101008e+00	8.129697e-01	8.129697e-01	1.156195e-01	1.156195e-01	9.684968e-01	8.679614e-01	3.260000e-10	1.200000e+00	
44	3.280000e-10	-1.038620e-04	-3.613814e-04	8.249536e-01	-4.943019e-05	1.107592e+00	8.361492e-01	8.361492e-01	9.625295e-02	9.625295e-02	9.811638e-01	8.860948e-01	3.280000e-10	1.200000e+00	
45	3.320000e-10	-1.091499e-04	-2.869554e-04	8.682500e-01	-5.684272e-05	1.119051e+00	8.780033e-01	8.780033e-01	6.780167e-02	6.780167e-02	1.005366e+00	9.208289e-01	3.320000e-10	1.200000e+00	
46	3.400000e-10	-1.001389e-04	-1.543484e-04	9.406047e-01	-4.794163e-05	1.136749e+00	9.479434e-01	9.479434e-01	3.293333e-02	3.293333e-02	1.047232e+00	9.808994e-01	3.400000e-10	1.200000e+00	
47	3.500000e-10	-2.515607e-05	-6.550305e-05	1.010516e+00	-1.511863e-05	1.153740e+00	1.015749e+00	1.015749e+00	1.282418e-02	1.282418e-02	1.087812e+00	1.039279e+00	3.500000e-10	1.200000e+00	
48	3.600000e-10	-2.330923e-05	-1.532195e-05	1.062374e+00	-9.188592e-06	1.166300e+00	1.065996e+00	1.065996e+00	5.645450e-03	5.645450e-03	1.118100e+00	1.082793e+00	3.600000e-10	1.200000e+00	
49	3.700000e-10	5.134973e-06	-1.461855e-05	1.100067e+00	-1.391666e-08	1.175543e+00	1.102721e+00	1.102721e+00	2.988072e-03	2.988072e-03	1.140454e+00	1.114826e+00	3.700000e-10	1.200000e+00	
50	3.800000e-10	-1.270174e-05	1.811406e-06	1.127537e+00	-3.722825e-06	1.182250e+00	1.129410e+00	1.129410e+00	1.855231e-03	1.855231e-03	1.156782e+00	1.138180e+00	3.800000e-10	1.200000e+00	
51	3.900000e-10	8.762180e-06	-8.522395e-06	1.147425e+00	1.685034e-06	1.187124e+00	1.148821e+00	1.148821e+00	1.241284e-03	1.241284e-03	1.168644e+00	1.155159e+00	3.900000e-10	1.200000e+00	
52	4.000000e-10	-1.061831e-05	4.942074e-06	1.161900e+00	-2.559717e-06	1.190635e+00	1.162878e+00	1.162878e+00	9.171532e-04	9.171532e-04	1.177251e+00	1.167478e+00	4.000000e-10	1.200000e+00	
53	4.100000e-10	9.390878e-06	-7.308164e-06	1.172347e+00	1.890041e-06	1.193189e+00	1.173086e+00	1.173086e+00	6.818743e-04	6.818743e-04	1.183487e+00	1.176408e+00	4.100000e-10	1.200000e+00	
54	4.200000e-10	-9.797247e-06	6.024457e-06	1.179953e+00	-2.043754e-06	1.195024e+00	1.180464e+00	1.180464e+00	5.576943e-04	5.576943e-04	1.188004e+00	1.182878e+00	4.200000e-10	1.200000e+00	
55	4.300000e-10	9.485176e-06	-6.953894e-06	1.185428e+00	1.838890e-06	1.196361e+00	1.185821e+00	1.185821e+00	4.462954e-04	4.462954e-04	1.191273e+00	1.187561e+00	4.300000e-10	1.200000e+00	
56	4.400000e-10	-9.356508e-06	6.501563e-06	1.189420e+00	-1.729678e-06	1.197319e+00	1.189686e+00	1.189686e+00	3.940048e-04	3.940048e-04	1.193641e+00	1.190953e+00	4.400000e-10	1.200000e+00	
57	4.500000e-10	9.435045e-06	-6.828552e-06	1.192283e+00	1.725494e-06	1.198020e+00	1.192494e+00	1.192494e+00	3.340693e-04	3.340693e-04	1.195353e+00	1.193407e+00	4.500000e-10	1.200000e+00	
58	4.600000e-10	-9.068946e-06	6.739457e-06	1.194378e+00	-1.501857e-06	1.198520e+00	1.194517e+00	1.194517e+00	3.130083e-04	3.130083e-04	1.196593e+00	1.195183e+00	4.600000e-10	1.200000e+00	
59	4.700000e-10	9.341628e-06	-6.770706e-06	1.195874e+00	1.599200e-06	1.198888e+00	1.195988e+00	1.195988e+00	2.781733e-04	2.781733e-04	1.197489e+00	1.196468e+00	4.700000e-10	1.200000e+00	
60	4.800000e-10	-8.864351e-06	6.850351e-06	1.196974e+00	-1.323801e-06	1.199149e+00	1.197047e+00	1.197047e+00	2.715637e-04	2.715637e-04	1.198138e+00	1.197398e+00	4.800000e-10	1.200000e+00	
61	4.900000e-10	9.239377e-06	-6.727084e-06	1.197754e+00	1.476103e-06	1.199342e+00	1.197817e+00	1.197817e+00	2.498114e-04	2.498114e-04	1.198607e+00	1.198070e+00	4.900000e-10	1.200000e+00	
62	5.000000e-10	-8.709760e-06	6.886164e-06	1.198332e+00	-1.177917e-06	1.199478e+00	1.198370e+00	1.198370e+00	2.499718e-04	2.499718e-04	1.198947e+00	1.198557e+00	5.000000e-10	1.200000e+00	
63	5.100000e-10	9.140810e-06	-6.679091e-06	1.198738e+00	1.361506e-06	1.199580e+00	1.198774e+00	1.198774e+00	2.353312e-04	2.353312e-04	1.199192e+00	1.198909e+00	5.100000e-10	1.200000e+00	
64	5.200000e-10	-8.587265e-06	6.874941e-06	1.199042e+00	-1.054352e-06	1.199650e+00	1.199063e+00	1.199063e+00	2.385888e-04	2.385888e-04	1.199370e+00	1.199164e+00	5.200000e-10	1.200000e+00	
65	5.300000e-10	9.049965e-06	-6.621160e-06	1.199253e+00	1.256639e-06	1.199704e+00	1.199275e+00	1.199275e+00	2.279468e-04	2.279468e-04	1.199499e+00	1.199348e+00	5.300000e-10	1.200000e+00	
66	5.400000e-10	-8.486279e-06	6.833254e-06	1.199414e+00	-9.470823e-07	1.199740e+00	1.199426e+00	1.199426e+00	2.325265e-04	2.325265e-04	1.199592e+00	1.199481e+00	5.400000e-10	1.200000e+00	
67	5.500000e-10	8.967437e-06	-6.552849e-06	1.199522e+00	1.161148e-06	1.199769e+00	1.199537e+00	1.199537e+00	2.242078e-04	2.242078e-04	1.199659e+00	1.199577e+00	5.500000e-10	1.200000e+00	
68	5.600000e-10	-8.400194e-06	6.771474e-06	1.199608e+00	-8.522068e-07	1.199788e+00	1.199616e+00	1.199616e+00	2.292619e-04	2.292619e-04	1.199707e+00	1.199647e+00	5.600000e-10	1.200000e+00	
69	5.700000e-10	8.892492e-06	-6.475603e-06	1.199663e+00	1.074130e-06	1.199803e+00	1.199674e+00	1.199674e+00	2.223414e-04	2.223414e-04	1.199743e+00	1.199698e+00	5.700000e-10	1.200000e+00	
70	5.800000e-10	-8.324713e-06	6.696352e-06	1.199710e+00	-7.670854e-07	1.199812e+00	1.199715e+00	1.199715e+00	2.274793e-04	2.274793e-04	1.199768e+00	1.199734e+00	5.800000e-10	1.200000e+00	
71	5.900000e-10	8.823991e-06	-6.391372e-06	1.199737e+00	9.945697e-07	1.199820e+00	1.199746e+00	1.199746e+00	2.214330e-04	2.214330e-04	1.199786e+00	1.199760e+00	5.900000e-10	1.200000e+00	
72	6.000000e-10	-8.256953e-06	6.612415e-06	1.199763e+00	-6.898673e-07	1.199825e+00	1.199767e+00	1.199767e+00	2.264873e-04	2.264873e-04	1.199800e+00	1.199780e+00	6.000000e-10	1.200000e+00	
73	6.100000e-10	8.760782e-06	-6.302041e-06	1.199776e+00	9.215173e-07	1.199830e+00	1.199783e+00	1.199783e+00	2.210110e-04	2.210110e-04	1.199809e+00	1.199793e+00	6.100000e-10	1.200000e+00	
74	6.200000e-10	-8.194932e-06	6.522764e-06	1.199791e+00	-6.192159e-07	1.199832e+00	1.199794e+00	1.199794e+00	2.259211e-04	2.259211e-04	1.199816e+00	1.199803e+00	6.200000e-10	1.200000e+00	
75	6.300000e-10	8.701854e-06	-6.209229e-06	1.199796e+00	8.541476e-07	1.199835e+00	1.199803e+00	1.199803e+00	2.208327e-04	2.208327e-04	1.199821e+00	1.199811e+00	6.300000e-10	1.200000e+00	
76	6.400000e-10	-8.137260e-06	6.429557e-06	1.199805e+00	-5.541402e-07	1.199836e+00	1.199809e+00	1.199809e+00	2.255866e-04	2.255866e-04	1.199825e+00	1.199816e+00	6.400000e-10	1.200000e+00	
77	6.500000e-10	8.646368e-06	-6.114239e-06	1.199807e+00	7.917683e-07	1.199837e+00	1.199813e+00	1.199813e+00	2.207742e-04	2.207742e-04	1.199828e+00	1.199820e+00	6.500000e-10	1.200000e+00	
78	6.600000e-10	-8.082945e-06	6.334313e-06	1.199813e+00	-4.938882e-07	1.199838e+00	1.199816e+00	1.199816e+00	2.253800e-04	2.253800e-04	1.199830e+00	1.199822e+00	6.600000e-10	1.200000e+00	
79	6.700000e-10	8.593662e-06	-6.018084e-06	1.199813e+00	7.338070e-07	1.199838e+00	1.199818e+00	1.199818e+00	2.207725e-04	2.207725e-04	1.199831e+00	1.199824e+00	6.700000e-10	1.200000e+00	
80	6.800000e-10	-8.031272e-06	6.238107e-06	1.199817e+00	-4.378771e-07	1.199839e+00	1.199820e+00	1.199820e+00	2.252452e-04	2.252452e-04	1.199832e+00	1.199826e+00	6.800000e-10	1.200000e+00	
81	6.900000e-10	8.543214e-06	-5.921534e-06	1.199816e+00	6.797924e-07	1.199839e+00	1.199821e+00	1.199821e+00	2.207964e-04	2.207964e-04	1.199833e+00	1.199827e+00	6.900000e-10	1.200000e+00	
82	7.000000e-10	-7.981718e-06	6.141704e-06	1.199819e+00	-3.856455e-07	1.199839e+00	1.199822e+00	1.199822e+00	2.251517e-04	2.251517e-04	1.199833e+00	1.199827e+00	7.000000e-10	1.200000e+00	
83	7.100000e-10	8.494627e-06	-5.825160e-06	1.199817e+00	6.293354e-07	1.199839e+00	1.199823e+00	1.199823e+00	2.208304e-04	2.208304e-04	1.199834e+00	1.199828e+00	7.100000e-10	1.200000e+00	
84	7.200000e-10	-7.933900e-06	6.045647e-06	1.199820e+00	-3.368213e-07	1.199839e+00	1.199823e+00	1.199823e+00	2.250824e-04	2.250824e-04	1.199834e+00	1.199828e+00	7.200000e-10	1.200000e+00	
85	7.300000e-10	8.447594e-06	-5.729383e-06	1.199818e+00	5.821118e-07	1.199840e+00	1.199823e+00	1.199823e+00	2.208674e-04	2.208674e-04	1.199834e+00	1.199829e+00	7.300000e-10	1.200000e+00	
86	7.400000e-10	-7.887530e-06	5.950319e-06	1.199820e+00	-2.910984e-07	1.199840e+00	1.199824e+00	1.199824e+00	2.250279e-04	2.250279e-04	1.199834e+00	1.199829e+00	7.400000e-10	1.200000e+00	
87	7.500000e-10	8.401880e-06	-5.634503e-06	1.199819e+00	5.378488e-07	1.199840e+00	1.199824e+00	1.199824e+00	2.209043e-04	2.209043e-04	1.199834e+00	1.199829e+00	7.500000e-10	1.200000e+00	
88	7.600000e-10	-7.842395e-06	5.855992e-06	1.199821e+00	-2.482206e-07	1.199840e+00	1.199824e+00	1.199824e+00	2.249825e-04	2.249825e-04	1.199834e+00	1.199829e+00	7.600000e-10	1.200000e+00	
89	7.700000e-10	8.357308e-06	-5.540737e-06	1.199819e+00	4.963139e-07	1.199840e+00	1.199824e+00	1.199824e+00	2.209398e-04	2.209398e-04	1.199834e+00	1.199829e+00	7.700000e-10	1.200000e+00	
90	7.800000e-10	-7.798334e-06	5.762850e-06	1.199821e+00	-2.079697e-07	1.199840e+00	1.199824e+00	1.199824e+00	2.249431e-04	2.249431e-04	1.199834e+00	1.199829e+00	7.800000e-10	1.200000e+00	
91	7.900000e-10	8.313740e-06	-5.448232e-06	1.199819e+00	4.573061e-07	1.199840e+00	1.199824e+00	1.199824e+00	2.209737e-04	2.209737e-04	1.199835e+00	1.199829e+00	7.900000e-10	1.200000e+00	
92	8.000000e-10	-7.755223e-06	5.671021e-06	1.199821e+00	-1.701566e-07	1.199840e+00	1.199824e+00	1.199824e+00	2.249077e-04	2.249077e-04	1.199835e+00	1.199829e+00	8.000000e-10	1.200000e+00	
93	8.100000e-10	8.271069e-06	-5.357090e-06	1.199819e+00	4.206496e-07	1.199840e+00	1.199824e+00	1.199824e+00	2.210058e-04	2.210058e-04	1.199835e+00	1.199829e+00	8.100000e-10	1.200000e+00	
94	8.200000e-10	-7.712966e-06	5.580588e-06	1.199821e+00	-1.346154e-07	1.199840e+00	1.199824e+00	1.199824e+00	2.248749e-04	2.248749e-04	1.199835e+00	1.199829e+00	8.200000e-10	1.200000e+00	
95	8.300000e-10	8.229212e-06	-5.267374e-06	1.199819e+00	3.861885e-07	1.199840e+00	1.199824e+00	1.199824e+00	2.210366e-04	2.210366e-04	1.199835e+00	1.199829e+00	8.300000e-10	1.200000e+00	
96	8.400000e-10	-7.671490e-06	5.491603e-06	1.199821e+00	-1.011984e-07	1.199840e+00	1.199824e+00	1.199824e+00	2.248441e-04	2.248441e-04	1.199835e+00	1.199829e+00	8.400000e-10	1.200000e+00	
97	8.500000e-10	8.188104e-06	-5.179123e-06	1.199819e+00	3.537832e-07	1.199840e+00	1.199824e+00	1.199824e+00	2.210662e-04	2.210662e-04	1.199835e+00	1.199829e+00	8.500000e-10	1.200000e+00	
98	8.600000e-10	-7.630736e-06	5.404093e-06	1.199821e+00	-6.977257e-08	1.199840e+00	1.199824e+00	1.199824e+00	2.248147e-04	2.248147e-04	1.199835e+00	1.199829e+00	8.600000e-10	1.200000e+00	
99	8.700000e-10	8.147692e-06	-5.092356e-06	1.199819e+00	3.233072e-07	1.199840e+00	1.199824e+00	1.199824e+00	2.210947e-04	2.210947e-04	1.199835e+00	1.199829e+00	8.700000e-10	1.200000e+00	
100	8.800000e-10	-7.590655e-06	5.318071e-06	1.199821e+00	-4.021719e-08	1.199840e+00	1.199824e+00	1.199824e+00	2.247864e-04	2.247864e-04	1.199835e+00	1.199829e+00	8.800000e-10	1.200000e+00	
101	8.900000e-10	8.107933e-06	-5.007078e-06	1.199819e+00	2.946450e-07	1.199840e+00	1.199824e+00	1.199824e+00	2.211225e-04	2.211225e-04	1.199835e+00	1.199829e+00	8.900000e-10	1.200000e+00	
102	9.000000e-10	-7.551209e-06	5.233536e-06	1.199821e+00	-1.242154e-08	1.199840e+00	1.199824e+00	1.199824e+00	2.247588e-04	2.247588e-04	1.199835e+00	1.199829e+00	9.000000e-10	1.200000e+00	
103	9.100000e-10	8.068793e-06	-4.923284e-06	1.199819e+00	2.676904e-07	1.199840e+00	1.199824e+00	1.199824e+00	2.211496e-04	2.211496e-04	1.199835e+00	1.199829e+00	9.100000e-10	1.200000e+00	
104	9.200000e-10	-7.512367e-06	5.150480e-06	1.199821e+00	1.371649e-08	1.199840e+00	1.199824e+00	1.199824e+00	2.247320e-04	2.247320e-04	1.199835e+00	1.199829e+00	9.200000e-10	1.200000e+00	
105	9.300000e-10	8.030241e-06	-4.840963e-06	1.199819e+00	2.423453e-07	1.199840e+00	1.199824e+00	1.199824e+00	2.211762e-04	2.211762e-04	1.199835e+00	1.199829e+00	9.300000e-10	1.200000e+00	
106	9.400000e-10	-7.474099e-06	5.068888e-06	1.199821e+00	3.829159e-08	1.199840e+00	1.199824e+00	1.199824e+00	2.247056e-04	2.247056e-04	1.199835e+00	1.199829e+00	9.400000e-10	1.200000e+00	
107	9.500000e-10	7.992252e-06	-4.760096e-06	1.199819e+00	2.185182e-07	1.199840e+00	1.199824e+00	1.199824e+00	2.212023e-04	2.212023e-04	1.199835e+00	1.199829e+00	9.500000e-10	1.200000e+00	
108	9.600000e-10	-7.436384e-06	4.988743e-06	1.199821e+00	6.139198e-08	1.199840e+00	1.199824e+00	1.199824e+00	2.246797e-04	2.246797e-04	1.199835e+00	1.199829e+00	9.600000e-10	1.200000e+00	
109	9.700000e-10	7.954804e-06	-4.680666e-06	1.199819e+00	1.961239e-07	1.199840e+00	1.199824e+00	1.199824e+00	2.212280e-04	2.212280e-04	1.199835e+00	1.199829e+00	9.700000e-10	1.200000e+00	
110	9.800000e-10	-7.399199e-06	4.910021e-06	1.199821e+00	8.310016e-08	1.199840e+00	1.199824e+00	1.199824e+00	2.246542e-04	2.246542e-04	1.199835e+00	1.199829e+00	9.800000e-10	1.200000e+00	
111	9.900000e-10	7.917878e-06	-4.602647e-06	1.199819e+00	1.750825e-07	1.199840e+00	1.199824e+00	1.199824e+00	2.212533e-04	2.212533e-04	1.199835e+00	1.199829e+00	9.900000e-10	1.200000e+00	
112	1.000000e-09	-7.362526e-06	4.832700e-06	1.199821e+00	1.034934e-07	1.199840e+00	1.199824e+00	1.199824e+00	2.246291e-04	2.246291e-04	1.199835e+00	1.199829e+00	1.000000e-09	1.200000e+00	
113	1.010000e-09	7.881455e-06	-4.526018e-06	1.199819e+00	1.553191e-07	1.199840e+00	1.199824e+00	1.199824e+00	2.212783e-04	2.212783e-04	1.199835e+00	1.199829e+00	1.010000e-09	1.200000e+00	
114	1.020000e-09	-7.326350e-06	4.756755e-06	1.199821e+00	1.226445e-07	1.199840e+00	1.199824e+00	1.199824e+00	2.246043e-04	2.246043e-04	1.199835e+00	1.199829e+00	1.020000e-09	1.200000e+00	
115	1.030000e-09	7.845520e-06	-4.450751e-06	1.199819e+00	1.367633e-07	1.199840e+00	1.199824e+00	1.199824e+00	2.213029e-04	2.213029e-04	1.199835e+00	1.199829e+00	1.030000e-09	1.200000e+00	
116	1.040000e-09	-7.290653e-06	4.682161e-06	1.199821e+00	1.406217e-07	1.199840e+00	1.199824e+00	1.199824e+00	2.245798e-04	2.245798e-04	1.199835e+00	1.199829e+00	1.040000e-09	1.200000e+00	
117	1.050000e-09	7.810059e-06	-4.376823e-06	1.199819e+00	1.193485e-07	1.199840e+00	1.199824e+00	1.199824e+00	2.213273e-04	2.213273e-04	1.199835e+00	1.199829e+00	1.050000e-09	1.200000e+00	
118	1.060000e-09	-7.255423e-06	4.608892e-06	1.199821e+00	1.574896e-07	1.199840e+00	1.199824e+00	1.199824e+00	2.245555e-04	2.245555e-04	1.199835e+00	1.199829e+00	1.060000e-09	1.200000e+00	
119	1.070000e-09	7.775057e-06	-4.304207e-06	1.199819e+00	1.030123e-07	1.199840e+00	1.199824e+00	1.199824e+00	2.213514e-04	2.213514e-04	1.199835e+00	1.199829e+00	1.070000e-09	1.200000e+00	
120	1.080000e-09	-7.220646e-06	4.536923e-06	1.199821e+00	1.733090e-07	1.199840e+00	1.199824e+00	1.199824e+00	2.245316e-04	2.245316e-04	1.199835e+00	1.199829e+00	1.080000e-09	1.200000e+00	
121	1.090000e-09	7.740502e-06	-4.232878e-06	1.199819e+00	8.769544e-08	1.199840e+00	1.199824e+00	1.199824e+00	2.213752e-04	2.213752e-04	1.199835e+00	1.199829e+00	1.090000e-09	1.200000e+00	
122	1.100000e-09	-7.186310e-06	4.466227e-06	1.199821e+00	1.881372e-07	1.199840e+00	1.199824e+00	1.199824e+00	2.245080e-04	2.245080e-04	1.199835e+00	1.199829e+00	1.100000e-09	1.200000e+00	
123	1.110000e-09	7.706381e-06	-4.162810e-06	1.199819e+00	7.334215e-08	1.199840e+00	1.199824e+00	1.199824e+00	2.213987e-04	2.213987e-04	1.199835e+00	1.199829e+00	1.110000e-09	1.200000e+00	
124	1.120000e-09	-7.152403e-06	4.396780e-06	1.199821e+00	2.020287e-07	1.199840e+00	1.199824e+00	1.199824e+00	2.244846e-04	2.244846e-04	1.199835e+00	1.199829e+00	1.120000e-09	1.200000e+00	
125	1.130000e-09	7.672685e-06	-4.093978e-06	1.199819e+00	5.989962e-08	1.199840e+00	1.199824e+00	1.199824e+00	2.214219e-04	2.214219e-04	1.199835e+00	1.199829e+00	1.130000e-09	1.200000e+00	
126	1.140000e-09	-7.118914e-06	4.328557e-06	1.199821e+00	2.150347e-07	1.199840e+00	1.199824e+00	1.199824e+00	2.244615e-04	2.244615e-04	1.199835e+00	1.199829e+00	1.140000e-09	1.200000e+00	
127	1.150000e-09	7.639401e-06	-4.026358e-06	1.199819e+00	4.731796e-08	1.199840e+00	1.199824e+00	1.199824e+00	2.214449e-04	2.214449e-04	1.199835e+00	1.199829e+00	1.150000e-09	1.200000e+00	
128	1.160000e-09	-7.085833e-06	4.261534e-06	1.199821e+00	2.272038e-07	1.199840e+00	1.199824e+00	1.199824e+00	2.244386e-04	2.244386e-04	1.199835e+00	1.199829e+00	1.160000e-09	1.200000e+00	
129	1.170000e-09	7.606520e-06	-3.959925e-06	1.199819e+00	3.554995e-08	1.199840e+00	1.199824e+00	1.199824e+00	2.214677e-04	2.214677e-04	1.199835e+00	1.199829e+00	1.170000e-09	1.200000e+00	
130	1.180000e-09	-7.053150e-06	4.195685e-06	1.199821e+00	2.385819e-07	1.199840e+00	1.199824e+00	1.199824e+00	2.244160e-04	2.244160e-04	1.199835e+00	1.199829e+00	1.180000e-09	1.200000e+00	
131	1.190000e-09	7.574032e-06	-3.894655e-06	1.199819e+00	2.455094e-08	1.199840e+00	1.199824e+00	1.199824e+00	2.214901e-04	2.214901e-04	1.199835e+00	1.199829e+00	1.190000e-09	1.200000e+00	
132	1.200000e-09	-7.020855e-06	4.130988e-06	1.199821e+00	2.492124e-07	1.199840e+00	1.199824e+00	1.199824e+00	2.243937e-04	2.243937e-04	1.199835e+00	1.199829e+00	1.200000e-09	1.200000e+00	
133	1.210000e-09	7.541928e-06	-3.830526e-06	1.199819e+00	1.427865e-08	1.199840e+00	1.199824e+00	1.199824e+00	2.215123e-04	2.215123e-04	1.199835e+00	1.199829e+00	1.210000e-09	1.200000e+00	
134	1.220000e-09	-6.988939e-06	4.067421e-06	1.199821e+00	2.591364e-07	1.199840e+00	1.199824e+00	1.199824e+00	2.243716e-04	2.243716e-04	1.199835e+00	1.199829e+00	1.220000e-09	1.200000e+00	
135	1.230000e-09	7.510198e-06	-3.767514e-06	1.199819e+00	4.693094e-09	1.199840e+00	1.199824e+00	1.199824e+00	2.215342e-04	2.215342e-04	1.199835e+00	1.199829e+00	1.230000e-09	1.200000e+00	
136	1.240000e-09	-6.957394e-06	4.004959e-06	1.199821e+00	2.683929e-07	1.199840e+00	1.199824e+00	1.199824e+00	2.243498e-04	2.243498e-04	1.199835e+00	1.199829e+00	1.240000e-09	1.200000e+00	
137	1.250000e-09	7.478835e-06	-3.705597e-06	1.199819e+00	-4.243599e-09	1.199840e+00	1.199824e+00	1.199824e+00	2.215559e-04	2.215559e-04	1.199835e+00	1.199829e+00	1.250000e-09	1.200000e+00	
138	1.260000e-09	-6.926210e-06	3.943581e-06	1.199821e+00	2.770187e-07	1.199840e+00	1.199824e+00	1.199824e+00	2.243283e-04	2.243283e-04	1.199835e+00	1.199829e+00	1.260000e-09	1.200000e+00	
139	1.270000e-09	7.447830e-06	-3.644753e-06	1.199819e+00	-1.256726e-08	1.199840e+00	1.199824e+00	1.199824e+00	2.215773e-04	2.215773e-04	1.199835e+00	1.199829e+00	1.270000e-09	1.200000e+00	
140	1.280000e-09	-6.895381e-06	3.883266e-06	1.199821e+00	2.850487e-07	1.199840e+00	1.199824e+00	1.199824e+00	2.243070e-04	2.243070e-04	1.199835e+00	1.199829e+00	1.280000e-09	1.200000e+00	
141	1.290000e-09	7.417174e-06	-3.584961e-06	1.199819e+00	-2.031182e-08	1.199840e+00	1.199824e+00	1.199824e+00	2.215985e-04	2.215985e-04	1.199835e+00	1.199829e+00	1.290000e-09	1.200000e+00	
142	1.300000e-09	-6.864898e-06	3.823992e-06	1.199821e+00	2.925159e-07	1.199840e+00	1.199824e+00	1.199824e+00	2.242860e-04	2.242860e-04	1.199835e+00	1.199829e+00	1.300000e-09	1.200000e+00	
143	1.310000e-09	7.386862e-06	-3.526201e-06	1.199819e+00	-2.750938e-08	1.199840e+00	1.199824e+00	1.199824e+00	2.216194e-04	2.216194e-04	1.199835e+00	1.199829e+00	1.310000e-09	1.200000e+00	
144	1.320000e-09	-6.834754e-06	3.765740e-06	1.199821e+00	2.994514e-07	1.199840e+00	1.199824e+00	1.199824e+00	2.242652e-04	2.242652e-04	1.199835e+00	1.199829e+00	1.320000e-09	1.200000e+00	
145	1.330000e-09	7.356884e-06	-3.468451e-06	1.199819e+00	-3.419035e-08	1.199840e+00	1.199824e+00	1.199824e+00	2.216400e-04	2.216400e-04	1.199835e+00	1.199829e+00	1.330000e-09	1.200000e+00	
146	1.340000e-09	-6.804942e-06	3.708488e-06	1.199821e+00	3.058850e-07	1.199840e+00	1.199824e+00	1.199824e+00	2.242447e-04	2.242447e-04	1.199835e+00	1.199829e+00	1.340000e-09	1.200000e+00	
147	1.350000e-09	7.327235e-06	-3.411692e-06	1.199819e+00	-4.038350e-08	1.199840e+00	1.199824e+00	1.199824e+00	2.216604e-04	2.216604e-04	1.199835e+00	1.199829e+00	1.350000e-09	1.200000e+00	
148	1.360000e-09	-6.775454e-06	3.652217e-06	1.199821e+00	3.118445e-07	1.199840e+00	1.199824e+00	1.199824e+00	2.242244e-04	2.242244e-04	1.199835e+00	1.199829e+00	1.360000e-09	1.200000e+00	
149	1.370000e-09	7.297907e-06	-3.355905e-06	1.199819e+00	-4.611608e-08	1.199840e+00	1.199824e+00	1.199824e+00	2.216805e-04	2.216805e-04	1.199835e+00	1.199829e+00	1.370000e-09	1.200000e+00	
150	1.380000e-09	-6.746284e-06	3.596909e-06	1.199821e+00	3.173566e-07	1.199840e+00	1.199824e+00	1.199824e+00	2.242044e-04	2.242044e-04	1.199835e+00	1.199829e+00	1.380000e-09	1.200000e+00	
151	1.390000e-09	7.268894e-06	-3.301070e-06	1.199819e+00	-5.141387e-08	1.199840e+00	1.199824e+00	1.199824e+00	2.217004e-04	2.217004e-04	1.199835e+00	1.199829e+00	1.390000e-09	1.200000e+00	
152	1.400000e-09	-6.717426e-06	3.542543e-06	1.199821e+00	3.224462e-07	1.199840e+00	1.199824e+00	1.199824e+00	2.241847e-04	2.241847e-04	1.199835e+00	1.199829e+00	1.400000e-09	1.200000e+00	
153	1.410000e-09	7.240190e-06	-3.247169e-06	1.199819e+00	-5.630127e-08	1.199840e+00	1.199824e+00	1.199824e+00	2.217201e-04	2.217201e-04	1.199835e+00	1.199829e+00	1.410000e-09	1.200000e+00	
154	1.420000e-09	-6.688874e-06	3.489102e-06	1.199821e+00	3.271371e-07	1.199840e+00	1.199824e+00	1.199824e+00	2.241652e-04	2.241652e-04	1.199835e+00	1.199829e+00	1.420000e-09	1.200000e+00	
155	1.430000e-09	7.211788e-06	-3.194184e-06	1.199819e+00	-6.080141e-08	1.199840e+00	1.199824e+00	1.199824e+00	2.217394e-04	2.217394e-04	1.199835e+00	1.199829e+00	1.430000e-09	1.200000e+00	
156	1.440000e-09	-6.660621e-06	3.436568e-06	1.199821e+00	3.314519e-07	1.199840e+00	1.199824e+00	1.199824e+00	2.241459e-04	2.241459e-04	1.199835e+00	1.199829e+00	1.440000e-09	1.200000e+00	
157	1.450000e-09	7.183683e-06	-3.142097e-06	1.199819e+00	-6.493614e-08	1.199840e+00	1.199824e+00	1.199824e+00	2.217586e-04	2.217586e-04	1.199835e+00	1.199829e+00	1.450000e-09	1.200000e+00	
158	1.460000e-09	-6.632662e-06	3.384924e-06	1.199821e+00	3.354118e-07	1.199840e+00	1.199824e+00	1.199824e+00	2.241269e-04	2.241269e-04	1.199835e+00	1.199829e+00	1.460000e-09	1.200000e+00	
159	1.470000e-09	7.155868e-06	-3.090891e-06	1.199819e+00	-6.872617e-08	1.199840e+00	1.199824e+00	1.199824e+00	2.217774e-04	2.217774e-04	1.199835e+00	1.199829e+00	1.470000e-09	1.200000e+00	
160	1.480000e-09	-6.604991e-06	3.334151e-06	1.199821e+00	3.390368e-07	1.199840e+00	1.199824e+00	1.199824e+00	2.241082e-04	2.241082e-04	1.199835e+00	1.199829e+00	1.480000e-09	1.200000e+00	
161	1.490000e-09	7.128339e-06	-3.040548e-06	1.199819e+00	-7.219109e-08	1.199840e+00	1.199824e+00	1.199824e+00	2.217961e-04	2.217961e-04	1.199835e+00	1.199829e+00	1.490000e-09	1.200000e+00	
162	1.500000e-09	-6.577602e-06	3.284234e-06	1.199821e+00	3.423462e-07	1.199840e+00	1.199824e+00	1.199824e+00	2.240897e-04	2.240897e-04	1.199835e+00	1.199829e+00	1.500000e-09	1.200000e+00	
163	1.510000e-09	7.101090e-06	-2.991053e-06	1.199819e+00	-7.534944e-08	1.199840e+00	1.199824e+00	1.199824e+00	2.218145e-04	2.218145e-04	1.199835e+00	1.199829e+00	1.510000e-09	1.200000e+00	
164	1.520000e-09	-6.550491e-06	3.235157e-06	1.199821e+00	3.453579e-07	1.199840e+00	1.199824e+00	1.199824e+00	2.240714e-04	2.240714e-04	1.199835e+00	1.199829e+00	1.520000e-09	1.200000e+00	
165	1.530000e-09	7.074116e-06	-2.942388e-06	1.199819e+00	-7.821878e-08	1.199840e+00	1.199824e+00	1.199824e+00	2.218326e-04	2.218326e-04	1.199835e+00	1.199829e+00	1.530000e-09	1.200000e+00	
166	1.540000e-09	-6.523653e-06	3.186902e-06	1.199821e+00	3.480890e-07	1.199840e+00	1.199824e+00	1.199824e+00	2.240534e-04	2.240534e-04	1.199835e+00	1.199829e+00	1.540000e-09	1.200000e+00	
167	1.550000e-09	7.047412e-06	-2.894539e-06	1.199819e+00	-8.081571e-08	1.199840e+00	1.199824e+00	1.199824e+00	2.218505e-04	2.218505e-04	1.199835e+00	1.199829e+00	1.550000e-09	1.200000e+00	
168	1.560000e-09	-6.497082e-06	3.139455e-06	1.199821e+00	3.505557e-07	1.199840e+00	1.199824e+00	1.199824e+00	2.240356e-04	2.240356e-04	1.199835e+00	1.199829e+00	1.560000e-09	1.200000e+00	
169	1.570000e-09	7.020973e-06	-2.847490e-06	1.199819e+00	-8.315595e-08	1.199840e+00	1.199824e+00	1.199824e+00	2.218682e-04	2.218682e-04	1.199835e+00	1.199829e+00	1.570000e-09	1.200000e+00	
170	1.580000e-09	-6.470774e-06	3.092799e-06	1.199820e+00	3.527732e-07	1.199840e+00	1.199824e+00	1.199824e+00	2.240180e-04	2.240180e-04	1.199835e+00	1.199829e+00	1.580000e-09	1.200000e+00	
171	1.590000e-09	6.994794e-06	-2.801225e-06	1.199819e+00	-8.525438e-08	1.199840e+00	1.199824e+00	1.199824e+00	2.218856e-04	2.218856e-04	1.199835e+00	1.199829e+00	1.590000e-09	1.200000e+00	
172	1.600000e-09	-6.444724e-06	3.046921e-06	1.199820e+00	3.547560e-07	1.199840e+00	1.199824e+00	1.199824e+00	2.240007e-04	2.240007e-04	1.199835e+00	1.199829e+00	1.600000e-09	1.200000e+00	
173	1.610000e-09	6.968871e-06	-2.755730e-06	1.199819e+00	-8.712506e-08	1.199840e+00	1.199824e+00	1.199824e+00	2.219029e-04	2.219029e-04	1.199835e+00	1.199829e+00	1.610000e-09	1.200000e+00	
174	1.620000e-09	-6.418927e-06	3.001805e-06	1.199820e+00	3.565179e-07	1.199840e+00	1.199824e+00	1.199824e+00	2.239836e-04	2.239836e-04	1.199835e+00	1.199829e+00	1.620000e-09	1.200000e+00	
175	1.630000e-09	6.943200e-06	-2.710990e-06	1.199819e+00	-8.878133e-08	1.199840e+00	1.199824e+00	1.199824e+00	2.219198e-04	2.219198e-04	1.199835e+00	1.199829e+00	1.630000e-09	1.200000e+00	
176	1.640000e-09	-6.393380e-06	2.957438e-06	1.199820e+00	3.580717e-07	1.199840e+00	1.199824e+00	1.199824e+00	2.239667e-04	2.239667e-04	1.199835e+00	1.199829e+00	1.640000e-09	1.200000e+00	
177	1.650000e-09	6.917776e-06	-2.666991e-06	1.199820e+00	-9.023577e-08	1.199840e+00	1.199824e+00	1.199824e+00	2.219366e-04	2.219366e-04	1.199835e+00	1.199829e+00	1.650000e-09	1.200000e+00	
178	1.660000e-09	-6.368078e-06	2.913804e-06	1.199820e+00	3.594298e-07	1.199840e+00	1.199824e+00	1.199824e+00	2.239501e-04	2.239501e-04	1.199835e+00	1.199829e+00	1.660000e-09	1.200000e+00	
179	1.670000e-09	6.892595e-06	-2.623719e-06	1.199820e+00	-9.150032e-08	1.199840e+00	1.199824e+00	1.199824e+00	2.219531e-04	2.219531e-04	1.199835e+00	1.199829e+00	1.670000e-09	1.200000e+00	
180	1.680000e-09	-6.343017e-06	2.870890e-06	1.199820e+00	3.606036e-07	1.199840e+00	1.199824e+00	1.199824e+00	2.239337e-04	2.239337e-04	1.199835e+00	1.199829e+00	1.680000e-09	1.200000e+00	
181	1.690000e-09	6.867654e-06	-2.581161e-06	1.199820e+00	-9.258624e-08	1.199840e+00	1.199824e+00	1.199824e+00	2.219694e-04	2.219694e-04	1.199835e+00	1.199829e+00	1.690000e-09	1.200000e+00	
182	1.700000e-09	-6.318194e-06	2.828684e-06	1.199820e+00	3.616043e-07	1.199840e+00	1.199824e+00	1.199824e+00	2.239175e-04	2.239175e-04	1.199835e+00	1.199829e+00	1.700000e-09	1.200000e+00	
183	1.710000e-09	6.842947e-06	-2.539303e-06	1.199820e+00	-9.350421e-08	1.199840e+00	1.199824e+00	1.199824e+00	2.219855e-04	2.219855e-04	1.199835e+00	1.199829e+00	1.710000e-09	1.200000e+00	
184	1.720000e-09	-6.293603e-06	2.787171e-06	1.199820e+00	3.624421e-07	1.199840e+00	1.199824e+00	1.199824e+00	2.239015e-04	2.239015e-04	1.199835e+00	1.199829e+00	1.720000e-09	1.200000e+00	
185	1.730000e-09	6.818472e-06	-2.498132e-06	1.199820e+00	-9.426433e-08	1.199840e+00	1.199824e+00	1.199824e+00	2.220014e-04	2.220014e-04	1.199835e+00	1.199829e+00	1.730000e-09	1.200000e+00	
186	1.740000e-09	-6.269242e-06	2.746339e-06	1.199820e+00	3.631269e-07	1.199840e+00	1.199824e+00	1.199824e+00	2.238858e-04	2.238858e-04	1.199835e+00	1.199829e+00	1.740000e-09	1.200000e+00	
187	1.750000e-09	6.794224e-06	-2.457636e-06	1.199820e+00	-9.487614e-08	1.199840e+00	1.199824e+00	1.199824e+00	2.220170e-04	2.220170e-04	1.199835e+00	1.199829e+00	1.750000e-09	1.200000e+00	
188	1.760000e-09	-6.245107e-06	2.706176e-06	1.199820e+00	3.636679e-07	1.199840e+00	1.199824e+00	1.199824e+00	2.238702e-04	2.238702e-04	1.199835e+00	1.199829e+00	1.760000e-09	1.200000e+00	
189	1.770000e-09	6.770200e-06	-2.417802e-06	1.199820e+00	-9.534867e-08	1.199840e+00	1.199824e+00	1.199824e+00	2.220324e-04	2.220324e-04	1.199835e+00	1.199829e+00	1.770000e-09	1.200000e+00	
190	1.780000e-09	-6.221194e-06	2.666668e-06	1.199820e+00	3.640741e-07	1.199840e+00	1.199824e+00	1.199824e+00	2.238549e-04	2.238549e-04	1.199835e+00	1.199829e+00	1.780000e-09	1.200000e+00	
191	1.790000e-09	6.746397e-06	-2.378618e-06	1.199820e+00	-9.569047e-08	1.199840e+00	1.199824e+00	1.199824e+00	2.220477e-04	2.220477e-04	1.199835e+00	1.199829e+00	1.790000e-09	1.200000e+00	
192	1.800000e-09	-6.197500e-06	2.627805e-06	1.199820e+00	3.643535e-07	1.199840e+00	1.199824e+00	1.199824e+00	2.238398e-04	2.238398e-04	1.199835e+00	1.199829e+00	1.800000e-09	1.200000e+00	
193	1.810000e-09	6.722812e-06	-2.340072e-06	1.199820e+00	-9.590961e-08	1.199840e+00	1.199824e+00	1.199824e+00	2.220627e-04	2.220627e-04	1.199835e+00	1.199829e+00	1.810000e-09	1.200000e+00	
194	1.820000e-09	-6.174022e-06	2.589573e-06	1.199820e+00	3.645142e-07	1.199840e+00	1.199824e+00	1.199824e+00	2.238249e-04	2.238249e-04	1.199835e+00	1.199829e+00	1.820000e-09	1.200000e+00	
195	1.830000e-09	6.699440e-06	-2.302152e-06	1.199820e+00	-9.601373e-08	1.199840e+00	1.199824e+00	1.199824e+00	2.220775e-04	2.220775e-04	1.199835e+00	1.199829e+00	1.830000e-09	1.200000e+00	
196	1.840000e-09	-6.150756e-06	2.551962e-06	1.199820e+00	3.645636e-07	1.199840e+00	1.199824e+00	1.199824e+00	2.238102e-04	2.238102e-04	1.199835e+00	1.199829e+00	1.840000e-09	1.200000e+00	
197	1.850000e-09	6.676278e-06	-2.264847e-06	1.199820e+00	-9.601006e-08	1.199840e+00	1.199824e+00	1.199824e+00	2.220921e-04	2.220921e-04	1.199835e+00	1.199829e+00	1.850000e-09	1.200000e+00	
198	1.860000e-09	-6.127698e-06	2.514960e-06	1.199820e+00	3.645086e-07	1.199840e+00	1.199824e+00	1.199824e+00	2.237957e-04	2.237957e-04	1.199835e+00	1.199829e+00	1.860000e-09	1.200000e+00	
199	1.870000e-09	6.653324e-06	-2.228146e-06	1.199820e+00	-9.590542e-08	1.199840e+00	1.199824e+00	1.199824e+00	2.221065e-04	2.221065e-04	1.199835e+00	1.199829e+00	1.870000e-09	1.200000e+00	
200	1.880000e-09	-6.104847e-06	2.478557e-06	1.199820e+00	3.643559e-07	1.199840e+00	1.199824e+00	1.199824e+00	2.237814e-04	2.237814e-04	1.199835e+00	1.199829e+00	1.880000e-09	1.200000e+00	
201	1.890000e-09	6.630574e-06	-2.192037e-06	1.199820e+00	-9.570628e-08	1.199840e+00	1.199824e+00	1.199824e+00	2.221207e-04	2.221207e-04	1.199835e+00	1.199829e+00	1.890000e-09	1.200000e+00	
202	1.900000e-09	-6.082198e-06	2.442741e-06	1.199820e+00	3.641118e-07	1.199840e+00	1.199824e+00	1.199824e+00	2.237673e-04	2.237673e-04	1.199835e+00	1.199829e+00	1.900000e-09	1.200000e+00	
203	1.910000e-09	6.608026e-06	-2.156511e-06	1.199820e+00	-9.541873e-08	1.199840e+00	1.199824e+00	1.199824e+00	2.221347e-04	2.221347e-04	1.199835e+00	1.199829e+00	1.910000e-09	1.200000e+00	
204	1.920000e-09	-6.059749e-06	2.407501e-06	1.199820e+00	3.637822e-07	1.199840e+00	1.199824e+00	1.199824e+00	2.237534e-04	2.237534e-04	1.199835e+00	1.199829e+00	1.920000e-09	1.200000e+00	
205	1.930000e-09	6.585676e-06	-2.121556e-06	1.199820e+00	-9.504856e-08	1.199840e+00	1.199824e+00	1.199824e+00	2.221485e-04	2.221485e-04	1.199835e+00	1.199829e+00	1.930000e-09	1.200000e+00	
206	1.940000e-09	-6.037497e-06	2.372828e-06	1.199820e+00	3.633728e-07	1.199840e+00	1.199824e+00	1.199824e+00	2.237397e-04	2.237397e-04	1.199835e+00	1.199829e+00	1.940000e-09	1.200000e+00	
207	1.950000e-09	6.563522e-06	-2.087162e-06	1.199820e+00	-9.460121e-08	1.199840e+00	1.199824e+00	1.199824e+00	2.221621e-04	2.221621e-04	1.199835e+00	1.199829e+00	1.950000e-09	1.200000e+00	
208	1.960000e-09	-6.015440e-06	2.338711e-06	1.199820e+00	3.628888e-07	1.199840e+00	1.199824e+00	1.199824e+00	2.237261e-04	2.237261e-04	1.199835e+00	1.199829e+00	1.960000e-09	1.200000e+00	
209	1.970000e-09	6.541560e-06	-2.053319e-06	1.199820e+00	-9.408184e-08	1.199840e+00	1.199824e+00	1.199824e+00	2.221755e-04	2.221755e-04	1.199835e+00	1.199829e+00	1.970000e-09	1.200000e+00	
210	1.980000e-09	-5.993573e-06	2.305140e-06	1.199820e+00	3.623353e-07	1.199840e+00	1.199824e+00	1.199824e+00	2.237128e-04	2.237128e-04	1.199835e+00	1.199829e+00	1.980000e-09	1.200000e+00	
211	1.990000e-09	6.519788e-06	-2.020018e-06	1.199820e+00	-9.349532e-08	1.199840e+00	1.199824e+00	1.199824e+00	2.221888e-04	2.221888e-04	1.199835e+00	1.199829e+00	1.990000e-09	1.200000e+00	
212	2.000000e-09	-5.971895e-06	2.272106e-06	1.199820e+00	3.617169e-07	1.199840e+00	1.199824e+00	1.199824e+00	2.236997e-04	2.236997e-04	1.199835e+00	1.199829e+00	2.000000e-09	1.200000e+00	

                                                                                                              * spice from s1000s
                                                                                                              Transient Analysis  Fri Feb 20 21:56:54  2009
------------------------------------------------------------------------------------------------------------------------------------------------------------------------------------------------------------------------------------------------
Index   time            vdd#branch      vdt#branch      
------------------------------------------------------------------------------------------------------------------------------------------------------------------------------------------------------------------------------------------------
0	0.000000e+00	-8.376580e-06	1.313165e-07	
1	1.000000e-13	-1.153863e-05	2.657476e-08	
2	2.000000e-13	-1.155350e-05	1.257528e-07	
3	4.000000e-13	-1.176772e-05	2.819056e-07	
4	8.000000e-13	-1.219627e-05	4.230227e-07	
5	1.600000e-12	-1.268282e-05	4.007348e-07	
6	3.200000e-12	-1.310684e-05	1.414651e-07	
7	6.400000e-12	-1.320252e-05	-7.180648e-08	
8	1.280000e-11	-1.321329e-05	-7.945389e-08	
9	2.280000e-11	-1.322485e-05	-9.625606e-08	
10	3.280000e-11	-1.329567e-05	-9.217241e-08	
11	4.280000e-11	-1.329966e-05	-9.922111e-08	
12	5.280000e-11	-1.334556e-05	-9.765519e-08	
13	6.280000e-11	-1.333688e-05	-1.009066e-07	
14	7.280000e-11	-1.337151e-05	-1.004087e-07	
15	8.280000e-11	-1.335598e-05	-1.018192e-07	
16	9.280000e-11	-1.338482e-05	-1.017940e-07	
17	1.028000e-10	-1.336587e-05	-1.023087e-07	
18	1.128000e-10	-1.339159e-05	-1.024940e-07	
19	1.228000e-10	-1.337104e-05	-1.025682e-07	
20	1.328000e-10	-1.339500e-05	-1.028493e-07	
21	1.428000e-10	-1.337378e-05	-1.027049e-07	
22	1.528000e-10	-1.339667e-05	-1.030296e-07	
23	1.628000e-10	-1.337526e-05	-1.027773e-07	
24	1.728000e-10	-1.339746e-05	-1.031204e-07	
25	1.828000e-10	-1.337610e-05	-1.028165e-07	
26	1.928000e-10	-1.339779e-05	-1.031652e-07	
27	2.000000e-10	-1.337659e-05	-1.028355e-07	
28	2.010000e-10	-5.553845e-05	1.351536e-04	
29	2.030000e-10	-9.528037e-05	2.583622e-04	
30	2.070000e-10	-1.072625e-04	2.521788e-04	
31	2.150000e-10	-2.211860e-04	2.677220e-04	
32	2.250000e-10	-7.349498e-04	2.870020e-04	
33	2.350000e-10	-1.865814e-03	3.313298e-04	
34	2.450000e-10	-3.314012e-03	3.407625e-04	
35	2.550000e-10	-4.747277e-03	3.608378e-04	
36	2.650000e-10	-5.931929e-03	4.123543e-04	
37	2.750000e-10	-6.735301e-03	4.879113e-04	
38	2.850000e-10	-7.455031e-03	5.166439e-04	
39	2.950000e-10	-8.412482e-03	4.710266e-04	
40	3.050000e-10	-8.904087e-03	3.742523e-04	
41	3.150000e-10	-8.219468e-03	3.356521e-04	
42	3.250000e-10	-5.969413e-03	3.229977e-04	
43	3.260000e-10	-5.755502e-03	1.926333e-04	
44	3.280000e-10	-5.176477e-03	6.327891e-05	
45	3.320000e-10	-4.215190e-03	3.468115e-05	
46	3.400000e-10	-2.794078e-03	1.907364e-05	
47	3.500000e-10	-1.726148e-03	2.205215e-05	
48	3.600000e-10	-1.148456e-03	9.992343e-06	
49	3.700000e-10	-8.029784e-04	1.300480e-05	
50	3.800000e-10	-5.731778e-04	4.757954e-06	
51	3.900000e-10	-4.153138e-04	7.558292e-06	
52	4.000000e-10	-3.017926e-04	2.065289e-06	
53	4.100000e-10	-2.223030e-04	4.480226e-06	
54	4.200000e-10	-1.632790e-04	7.806179e-07	
55	4.300000e-10	-1.227747e-04	2.734695e-06	
56	4.400000e-10	-9.139454e-05	2.100194e-07	
57	4.500000e-10	-7.094816e-05	1.730437e-06	
58	4.600000e-10	-5.387629e-05	-1.473786e-08	
59	4.700000e-10	-4.389202e-05	1.140477e-06	
60	4.800000e-10	-3.426028e-05	-7.854455e-08	
61	4.900000e-10	-2.975597e-05	7.856433e-07	
62	5.000000e-10	-2.399502e-05	-7.300212e-08	
63	5.100000e-10	-2.236944e-05	5.667974e-07	
64	5.200000e-10	-1.861942e-05	-4.198657e-08	
65	5.300000e-10	-1.851088e-05	4.283760e-07	
66	5.400000e-10	-1.580225e-05	-5.463143e-09	
67	5.500000e-10	-1.649665e-05	3.387006e-07	
68	5.600000e-10	-1.432431e-05	2.829547e-08	
69	5.700000e-10	-1.544648e-05	2.793329e-07	
70	5.800000e-10	-1.354769e-05	5.653236e-08	
71	5.900000e-10	-1.490009e-05	2.392860e-07	
72	6.000000e-10	-1.313853e-05	7.893965e-08	
73	6.100000e-10	-1.461680e-05	2.118465e-07	
74	6.200000e-10	-1.292206e-05	9.617501e-08	
75	6.300000e-10	-1.447080e-05	1.928059e-07	
76	6.400000e-10	-1.280673e-05	1.091733e-07	
77	6.500000e-10	-1.439633e-05	1.794605e-07	
78	6.600000e-10	-1.274459e-05	1.188497e-07	
79	6.700000e-10	-1.435905e-05	1.700334e-07	
80	6.800000e-10	-1.271050e-05	1.259909e-07	
81	6.900000e-10	-1.434102e-05	1.633338e-07	
82	7.000000e-10	-1.269126e-05	1.312301e-07	
83	7.100000e-10	-1.433291e-05	1.585502e-07	
84	7.200000e-10	-1.267995e-05	1.350588e-07	
85	7.300000e-10	-1.432985e-05	1.551220e-07	
86	7.400000e-10	-1.267292e-05	1.378497e-07	
87	7.500000e-10	-1.432931e-05	1.526577e-07	
88	7.600000e-10	-1.266823e-05	1.398812e-07	
89	7.700000e-10	-1.432998e-05	1.508816e-07	
90	7.800000e-10	-1.266487e-05	1.413589e-07	
91	7.900000e-10	-1.433119e-05	1.495985e-07	
92	8.000000e-10	-1.266229e-05	1.424340e-07	
93	8.100000e-10	-1.433261e-05	1.486694e-07	
94	8.200000e-10	-1.266019e-05	1.432168e-07	
95	8.300000e-10	-1.433406e-05	1.479948e-07	
96	8.400000e-10	-1.265843e-05	1.437877e-07	
97	8.500000e-10	-1.433545e-05	1.475036e-07	
98	8.600000e-10	-1.265690e-05	1.442051e-07	
99	8.700000e-10	-1.433676e-05	1.471447e-07	
100	8.800000e-10	-1.265555e-05	1.445112e-07	
101	8.900000e-10	-1.433796e-05	1.468812e-07	
102	9.000000e-10	-1.265436e-05	1.447366e-07	
103	9.100000e-10	-1.433905e-05	1.466868e-07	
104	9.200000e-10	-1.265330e-05	1.449037e-07	
105	9.300000e-10	-1.434003e-05	1.465424e-07	
106	9.400000e-10	-1.265235e-05	1.450283e-07	
107	9.500000e-10	-1.434091e-05	1.464343e-07	
108	9.600000e-10	-1.265152e-05	1.451222e-07	
109	9.700000e-10	-1.434169e-05	1.463525e-07	
110	9.800000e-10	-1.265078e-05	1.451936e-07	
111	9.900000e-10	-1.434238e-05	1.462898e-07	
112	1.000000e-09	-1.265014e-05	1.452487e-07	
113	1.010000e-09	-1.434297e-05	1.462412e-07	
114	1.020000e-09	-1.264959e-05	1.452918e-07	
115	1.030000e-09	-1.434348e-05	1.462028e-07	
116	1.040000e-09	-1.264912e-05	1.453261e-07	
117	1.050000e-09	-1.434391e-05	1.461719e-07	
118	1.060000e-09	-1.264872e-05	1.453540e-07	
119	1.070000e-09	-1.434427e-05	1.461467e-07	
120	1.080000e-09	-1.264841e-05	1.453770e-07	
121	1.090000e-09	-1.434455e-05	1.461256e-07	
122	1.100000e-09	-1.264816e-05	1.453964e-07	
123	1.110000e-09	-1.434476e-05	1.461077e-07	
124	1.120000e-09	-1.264798e-05	1.454130e-07	
125	1.130000e-09	-1.434491e-05	1.460921e-07	
126	1.140000e-09	-1.264786e-05	1.454276e-07	
127	1.150000e-09	-1.434500e-05	1.460784e-07	
128	1.160000e-09	-1.264780e-05	1.454405e-07	
129	1.170000e-09	-1.434503e-05	1.460662e-07	
130	1.180000e-09	-1.264780e-05	1.454522e-07	
131	1.190000e-09	-1.434500e-05	1.460551e-07	
132	1.200000e-09	-1.264786e-05	1.454628e-07	
133	1.210000e-09	-1.434492e-05	1.460449e-07	
134	1.220000e-09	-1.264796e-05	1.454726e-07	
135	1.230000e-09	-1.434479e-05	1.460355e-07	
136	1.240000e-09	-1.264812e-05	1.454817e-07	
137	1.250000e-09	-1.434461e-05	1.460267e-07	
138	1.260000e-09	-1.264832e-05	1.454902e-07	
139	1.270000e-09	-1.434439e-05	1.460184e-07	
140	1.280000e-09	-1.264857e-05	1.454982e-07	
141	1.290000e-09	-1.434412e-05	1.460107e-07	
142	1.300000e-09	-1.264885e-05	1.455057e-07	
143	1.310000e-09	-1.434381e-05	1.460034e-07	
144	1.320000e-09	-1.264918e-05	1.455128e-07	
145	1.330000e-09	-1.434346e-05	1.459964e-07	
146	1.340000e-09	-1.264955e-05	1.455196e-07	
147	1.350000e-09	-1.434308e-05	1.459898e-07	
148	1.360000e-09	-1.264995e-05	1.455261e-07	
149	1.370000e-09	-1.434266e-05	1.459835e-07	
150	1.380000e-09	-1.265039e-05	1.455322e-07	
151	1.390000e-09	-1.434221e-05	1.459775e-07	
152	1.400000e-09	-1.265085e-05	1.455381e-07	
153	1.410000e-09	-1.434172e-05	1.459718e-07	
154	1.420000e-09	-1.265135e-05	1.455437e-07	
155	1.430000e-09	-1.434121e-05	1.459663e-07	
156	1.440000e-09	-1.265188e-05	1.455491e-07	
157	1.450000e-09	-1.434067e-05	1.459610e-07	
158	1.460000e-09	-1.265244e-05	1.455542e-07	
159	1.470000e-09	-1.434010e-05	1.459560e-07	
160	1.480000e-09	-1.265302e-05	1.455591e-07	
161	1.490000e-09	-1.433950e-05	1.459512e-07	
162	1.500000e-09	-1.265363e-05	1.455638e-07	
163	1.510000e-09	-1.433888e-05	1.459466e-07	
164	1.520000e-09	-1.265426e-05	1.455683e-07	
165	1.530000e-09	-1.433824e-05	1.459422e-07	
166	1.540000e-09	-1.265491e-05	1.455727e-07	
167	1.550000e-09	-1.433758e-05	1.459379e-07	
168	1.560000e-09	-1.265558e-05	1.455768e-07	
169	1.570000e-09	-1.433690e-05	1.459339e-07	
170	1.580000e-09	-1.265628e-05	1.455808e-07	
171	1.590000e-09	-1.433619e-05	1.459299e-07	
172	1.600000e-09	-1.265699e-05	1.455846e-07	
173	1.610000e-09	-1.433547e-05	1.459262e-07	
174	1.620000e-09	-1.265772e-05	1.455883e-07	
175	1.630000e-09	-1.433474e-05	1.459226e-07	
176	1.640000e-09	-1.265846e-05	1.455918e-07	
177	1.650000e-09	-1.433399e-05	1.459191e-07	
178	1.660000e-09	-1.265922e-05	1.455952e-07	
179	1.670000e-09	-1.433322e-05	1.459158e-07	
180	1.680000e-09	-1.265999e-05	1.455985e-07	
181	1.690000e-09	-1.433244e-05	1.459126e-07	
182	1.700000e-09	-1.266078e-05	1.456016e-07	
183	1.710000e-09	-1.433164e-05	1.459095e-07	
184	1.720000e-09	-1.266158e-05	1.456046e-07	
185	1.730000e-09	-1.433083e-05	1.459066e-07	
186	1.740000e-09	-1.266240e-05	1.456075e-07	
187	1.750000e-09	-1.433002e-05	1.459037e-07	
188	1.760000e-09	-1.266322e-05	1.456103e-07	
189	1.770000e-09	-1.432919e-05	1.459010e-07	
190	1.780000e-09	-1.266405e-05	1.456130e-07	
191	1.790000e-09	-1.432835e-05	1.458984e-07	
192	1.800000e-09	-1.266490e-05	1.456156e-07	
193	1.810000e-09	-1.432750e-05	1.458958e-07	
194	1.820000e-09	-1.266575e-05	1.456181e-07	
195	1.830000e-09	-1.432664e-05	1.458934e-07	
196	1.840000e-09	-1.266661e-05	1.456205e-07	
197	1.850000e-09	-1.432578e-05	1.458910e-07	
198	1.860000e-09	-1.266748e-05	1.456228e-07	
199	1.870000e-09	-1.432491e-05	1.458887e-07	
200	1.880000e-09	-1.266835e-05	1.456250e-07	
201	1.890000e-09	-1.432403e-05	1.458866e-07	
202	1.900000e-09	-1.266924e-05	1.456272e-07	
203	1.910000e-09	-1.432314e-05	1.458844e-07	
204	1.920000e-09	-1.267012e-05	1.456293e-07	
205	1.930000e-09	-1.432225e-05	1.458824e-07	
206	1.940000e-09	-1.267102e-05	1.456313e-07	
207	1.950000e-09	-1.432136e-05	1.458804e-07	
208	1.960000e-09	-1.267191e-05	1.456332e-07	
209	1.970000e-09	-1.432046e-05	1.458786e-07	
210	1.980000e-09	-1.267282e-05	1.456350e-07	
211	1.990000e-09	-1.431956e-05	1.458767e-07	
212	2.000000e-09	-1.267372e-05	1.456368e-07	

CPU time since last call: 0.090 seconds.

Total CPU time: 0.090 seconds.

Total DRAM available = 2017.597656 MB.
DRAM currently available = 74.464844 MB.
Total ngspice program size = 7.867188 MB.
Resident set size = 3.125000 MB.
Shared ngspice pages = 551.000 kB.
Text (code) pages = 1.404297 MB.
Stack = 0 bytes.
Library pages = 5.514648 MB.

