
Circuit: * spice from s1000s

Doing analysis at TEMP = 75.000000 and TNOM = 27.000000


Initial Transient Solution
--------------------------

Node                                   Voltage
----                                   -------
n0                                           0
n1                                           0
n4                                           1
n2                                           0
n3                                           1
nseg_node_5                                  0
nseg_node_6                                  0
gin                                          1
vdd                                          1
vdt#branch                                   0
vdd#branch                          -3.086e-06


No. of Data Rows : 214

                                                                                                              * spice from s1000s
                                                                                                              Transient Analysis  Fri Feb 20 21:56:54  2009
------------------------------------------------------------------------------------------------------------------------------------------------------------------------------------------------------------------------------------------------
Index   time            gin             m.x0.m1#body    m.x0.m1#dbody   m.x0.m1#gate    m.x0.m1#sbody   m.x0.m2#body    m.x0.m2#dbody   m.x0.m2#gate    m.x0.m2#sbody   m.x1.m1#body    m.x1.m1#dbody   m.x1.m1#gate    m.x1.m1#sbody   
------------------------------------------------------------------------------------------------------------------------------------------------------------------------------------------------------------------------------------------------
0	0.000000e+00	1.000000e+00	1.000000e+00	1.000000e+00	9.999992e-01	1.000000e+00	1.696921e-08	8.484607e-09	9.999996e-01	8.484607e-09	1.000000e+00	1.000000e+00	2.617601e-06	1.000000e+00	
1	1.000000e-13	1.000000e+00	1.000000e+00	1.000001e+00	1.000000e+00	1.000000e+00	1.251414e-06	1.643026e-06	1.000001e+00	3.874278e-07	9.999954e-01	9.999943e-01	-2.123942e-06	9.999988e-01	
2	2.000000e-13	1.000000e+00	1.000000e+00	1.000002e+00	1.000002e+00	1.000000e+00	1.280647e-06	1.971776e-06	1.000003e+00	5.426929e-07	9.999960e-01	9.999937e-01	-5.243484e-06	9.999984e-01	
3	4.000000e-13	1.000000e+00	1.000000e+00	1.000002e+00	1.000003e+00	1.000000e+00	1.158095e-06	1.927592e-06	1.000005e+00	6.249530e-07	9.999968e-01	9.999944e-01	-1.013274e-05	9.999982e-01	
4	8.000000e-13	1.000000e+00	1.000000e+00	1.000001e+00	1.000005e+00	1.000000e+00	8.297585e-07	1.293184e-06	1.000006e+00	4.302030e-07	9.999980e-01	9.999968e-01	-1.527611e-05	9.999989e-01	
5	1.600000e-12	1.000000e+00	1.000000e+00	1.000001e+00	1.000005e+00	1.000000e+00	4.884886e-07	8.098333e-07	1.000006e+00	2.562638e-07	9.999993e-01	9.999986e-01	-1.716320e-05	9.999996e-01	
6	3.200000e-12	1.000000e+00	1.000000e+00	1.000000e+00	1.000002e+00	1.000000e+00	1.835763e-07	2.472418e-07	1.000003e+00	9.263029e-08	9.999999e-01	1.000000e+00	-1.172989e-05	9.999999e-01	
7	6.400000e-12	1.000000e+00	1.000000e+00	1.000000e+00	9.999996e-01	1.000000e+00	7.218169e-08	1.273700e-07	1.000000e+00	3.741854e-08	1.000000e+00	9.999999e-01	-1.328779e-06	1.000000e+00	
8	1.280000e-11	1.000000e+00	1.000000e+00	1.000000e+00	9.999994e-01	1.000000e+00	3.239675e-08	3.973975e-09	9.999999e-01	1.530521e-08	9.999999e-01	1.000000e+00	1.357371e-05	1.000000e+00	
9	2.280000e-11	1.000000e+00	1.000000e+00	1.000000e+00	9.999993e-01	1.000000e+00	3.805851e-08	7.128525e-08	9.999997e-01	1.986507e-08	1.000000e+00	9.999999e-01	3.572716e-05	1.000000e+00	
10	3.280000e-11	1.000000e+00	1.000000e+00	1.000000e+00	9.999993e-01	1.000000e+00	2.098509e-08	-1.356233e-08	9.999997e-01	9.783514e-09	9.999999e-01	1.000000e+00	5.265701e-05	1.000000e+00	
11	4.280000e-11	1.000000e+00	1.000000e+00	1.000000e+00	9.999992e-01	1.000000e+00	3.101837e-08	5.916342e-08	9.999996e-01	1.613830e-08	1.000000e+00	9.999999e-01	6.462131e-05	1.000000e+00	
12	5.280000e-11	1.000000e+00	1.000000e+00	1.000000e+00	9.999992e-01	1.000000e+00	1.603799e-08	-2.071640e-08	9.999996e-01	7.498533e-09	1.000000e+00	1.000000e+00	7.334233e-05	1.000000e+00	
13	6.280000e-11	1.000000e+00	1.000000e+00	1.000000e+00	9.999992e-01	1.000000e+00	2.723124e-08	5.228688e-08	9.999996e-01	1.405364e-08	1.000000e+00	9.999999e-01	7.955224e-05	1.000000e+00	
14	7.280000e-11	1.000000e+00	1.000000e+00	1.000000e+00	9.999992e-01	1.000000e+00	1.356410e-08	-2.391310e-08	9.999996e-01	6.439780e-09	1.000000e+00	1.000000e+00	8.408716e-05	1.000000e+00	
15	8.280000e-11	1.000000e+00	1.000000e+00	1.000000e+00	9.999992e-01	1.000000e+00	2.516628e-08	4.819720e-08	9.999996e-01	1.284486e-08	1.000000e+00	9.999999e-01	8.729437e-05	1.000000e+00	
16	9.280000e-11	1.000000e+00	1.000000e+00	1.000000e+00	9.999992e-01	1.000000e+00	1.238166e-08	-2.505303e-08	9.999996e-01	6.015001e-09	1.000000e+00	1.000000e+00	8.966307e-05	1.000000e+00	
17	1.028000e-10	1.000000e+00	1.000000e+00	1.000000e+00	9.999992e-01	1.000000e+00	2.399735e-08	4.556718e-08	9.999996e-01	1.209800e-08	1.000000e+00	9.999999e-01	9.131066e-05	1.000000e+00	
18	1.128000e-10	1.000000e+00	1.000000e+00	1.000000e+00	9.999992e-01	1.000000e+00	1.186147e-08	-2.514790e-08	9.999996e-01	5.909237e-09	1.000000e+00	1.000000e+00	9.255590e-05	1.000000e+00	
19	1.228000e-10	1.000000e+00	1.000000e+00	1.000000e+00	9.999992e-01	1.000000e+00	2.330168e-08	4.371732e-08	9.999996e-01	1.160076e-08	1.000000e+00	9.999999e-01	9.339450e-05	1.000000e+00	
20	1.328000e-10	1.000000e+00	1.000000e+00	1.000000e+00	9.999992e-01	1.000000e+00	1.167738e-08	-2.472183e-08	9.999996e-01	5.959709e-09	1.000000e+00	1.000000e+00	9.405649e-05	1.000000e+00	
21	1.428000e-10	1.000000e+00	1.000000e+00	1.000000e+00	9.999992e-01	1.000000e+00	2.285784e-08	4.229141e-08	9.999996e-01	1.124148e-08	1.000000e+00	9.999999e-01	9.447583e-05	1.000000e+00	
22	1.528000e-10	1.000000e+00	1.000000e+00	1.000000e+00	9.999992e-01	1.000000e+00	1.166237e-08	-2.404290e-08	9.999996e-01	6.083494e-09	1.000000e+00	1.000000e+00	9.483480e-05	1.000000e+00	
23	1.628000e-10	1.000000e+00	1.000000e+00	1.000000e+00	9.999992e-01	1.000000e+00	2.254918e-08	4.110150e-08	9.999996e-01	1.096094e-08	1.000000e+00	9.999999e-01	9.503707e-05	1.000000e+00	
24	1.728000e-10	1.000000e+00	1.000000e+00	1.000000e+00	9.999992e-01	1.000000e+00	1.173111e-08	-2.324783e-08	9.999996e-01	6.238593e-09	1.000000e+00	1.000000e+00	9.523837e-05	1.000000e+00	
25	1.828000e-10	1.000000e+00	1.000000e+00	1.000000e+00	9.999992e-01	1.000000e+00	2.231421e-08	4.004829e-08	9.999996e-01	1.072761e-08	1.000000e+00	9.999999e-01	9.532843e-05	1.000000e+00	
26	1.928000e-10	1.000000e+00	1.000000e+00	1.000000e+00	9.999992e-01	1.000000e+00	1.184003e-08	-2.240620e-08	9.999996e-01	6.403881e-09	1.000000e+00	1.000000e+00	9.544756e-05	1.000000e+00	
27	2.000000e-10	1.000000e+00	1.000000e+00	1.000000e+00	9.999992e-01	1.000000e+00	2.209470e-08	3.891189e-08	9.999996e-01	1.049208e-08	1.000000e+00	9.999999e-01	9.546401e-05	1.000000e+00	
28	2.010000e-10	9.920000e-01	9.999721e-01	9.999696e-01	9.956758e-01	9.999872e-01	5.893535e-07	-1.518241e-05	9.954657e-01	2.778650e-07	1.000000e+00	1.000000e+00	9.463746e-05	1.000000e+00	
29	2.030000e-10	9.760000e-01	9.999494e-01	9.999553e-01	9.831373e-01	9.999747e-01	8.314244e-06	-1.337236e-05	9.825365e-01	3.943443e-06	9.999999e-01	9.999999e-01	8.826354e-05	1.000000e+00	
30	2.070000e-10	9.440000e-01	9.999585e-01	9.999836e-01	9.510664e-01	9.999791e-01	-5.881617e-06	1.285143e-06	9.502514e-01	-2.523799e-06	9.999998e-01	9.999997e-01	1.877188e-05	9.999999e-01	
31	2.150000e-10	8.800000e-01	9.999576e-01	9.999784e-01	8.874598e-01	9.999790e-01	3.349441e-06	9.846515e-07	8.865108e-01	1.199187e-06	1.000000e+00	1.000000e+00	-3.284038e-04	1.000000e+00	
32	2.250000e-10	8.000000e-01	9.999669e-01	1.000003e+00	8.078375e-01	9.999832e-01	-2.591699e-06	1.704552e-05	8.063847e-01	-7.952331e-07	1.000000e+00	1.000000e+00	-6.232087e-04	1.000000e+00	
33	2.350000e-10	7.200000e-01	9.999765e-01	1.000045e+00	7.293325e-01	9.999884e-01	5.476819e-05	7.766158e-05	7.267288e-01	2.653971e-05	1.000001e+00	1.000001e+00	2.474025e-04	1.000000e+00	
34	2.450000e-10	6.400000e-01	9.999888e-01	1.000128e+00	6.508378e-01	9.999941e-01	4.402305e-05	1.418204e-04	6.469814e-01	2.290166e-05	9.999991e-01	1.000001e+00	4.185362e-03	9.999996e-01	
35	2.550000e-10	5.600000e-01	1.000015e+00	1.000252e+00	5.719277e-01	1.000008e+00	4.395566e-05	2.336684e-04	5.673107e-01	2.111022e-05	9.999999e-01	1.000003e+00	1.465805e-02	9.999999e-01	
36	2.650000e-10	4.800000e-01	1.000079e+00	1.000547e+00	4.938351e-01	1.000039e+00	6.584505e-05	4.554640e-04	4.882954e-01	3.363265e-05	9.999984e-01	1.000004e+00	3.755694e-02	9.999993e-01	
37	2.750000e-10	4.000000e-01	1.000147e+00	1.000843e+00	4.167196e-01	1.000074e+00	1.305479e-04	6.532428e-04	4.090996e-01	6.417968e-05	9.999997e-01	1.000006e+00	8.212857e-02	9.999998e-01	
38	2.850000e-10	3.200000e-01	1.000168e+00	1.000936e+00	3.403400e-01	1.000084e+00	1.088477e-04	6.470617e-04	3.275932e-01	5.562574e-05	1.000004e+00	9.999912e-01	1.572504e-01	1.000002e+00	
39	2.950000e-10	2.400000e-01	1.000164e+00	1.000929e+00	2.613708e-01	1.000082e+00	1.178803e-04	5.961882e-04	2.462761e-01	5.771205e-05	9.998957e-01	9.997990e-01	2.622695e-01	9.999488e-01	
40	3.050000e-10	1.600000e-01	1.000085e+00	1.000561e+00	1.787644e-01	1.000043e+00	3.375446e-05	3.162312e-04	1.651531e-01	1.859725e-05	9.997527e-01	9.991873e-01	3.824085e-01	9.998767e-01	
41	3.150000e-10	8.000000e-02	1.000053e+00	1.000311e+00	9.624679e-02	1.000026e+00	2.225074e-05	1.764616e-04	8.415787e-02	9.519509e-06	9.996132e-01	9.976027e-01	4.899716e-01	9.998075e-01	
42	3.250000e-10	0.000000e+00	1.000072e+00	1.000218e+00	1.559531e-02	1.000036e+00	-1.925523e-05	8.660352e-05	3.885603e-03	-7.803899e-06	9.994280e-01	9.976634e-01	5.918211e-01	9.997148e-01	
43	3.260000e-10	0.000000e+00	1.000084e+00	1.000232e+00	1.057326e-02	1.000041e+00	1.633807e-05	1.130166e-04	1.495527e-03	7.224080e-06	9.996165e-01	9.980579e-01	6.025945e-01	9.998004e-01	
44	3.280000e-10	0.000000e+00	1.000101e+00	1.000231e+00	4.240271e-03	1.000050e+00	2.881212e-05	1.136060e-04	6.079458e-05	1.487023e-05	9.998817e-01	9.991922e-01	6.260525e-01	9.999363e-01	
45	3.320000e-10	0.000000e+00	1.000080e+00	1.000174e+00	1.557749e-03	1.000041e+00	1.527651e-05	7.995885e-05	6.230723e-04	7.408680e-06	9.999930e-01	9.997503e-01	6.718151e-01	9.999983e-01	
46	3.400000e-10	0.000000e+00	1.000078e+00	1.000151e+00	1.368665e-03	1.000038e+00	1.740715e-05	6.940250e-05	5.941523e-05	8.909555e-06	1.000012e+00	9.999030e-01	7.447885e-01	1.000004e+00	
47	3.483870e-10	0.000000e+00	1.000065e+00	1.000123e+00	1.139729e-03	1.000033e+00	1.007302e-05	5.281700e-05	4.147000e-04	4.890790e-06	1.000023e+00	9.999851e-01	8.033264e-01	1.000013e+00	
48	3.583870e-10	0.000000e+00	1.000055e+00	1.000094e+00	8.784468e-04	1.000027e+00	1.055023e-05	4.128058e-05	1.292844e-05	5.414254e-06	1.000020e+00	9.999973e-01	8.560459e-01	1.000008e+00	
49	3.683870e-10	0.000000e+00	1.000038e+00	1.000069e+00	6.526344e-04	1.000020e+00	5.052726e-06	2.809865e-05	2.567874e-04	2.424820e-06	1.000016e+00	1.000005e+00	8.945070e-01	1.000009e+00	
50	3.783870e-10	0.000000e+00	1.000032e+00	1.000052e+00	4.852576e-04	1.000015e+00	5.954096e-06	2.233349e-05	-2.167178e-05	3.070471e-06	1.000013e+00	1.000004e+00	9.227857e-01	1.000005e+00	
51	3.883870e-10	0.000000e+00	1.000021e+00	1.000037e+00	3.570790e-04	1.000011e+00	2.396518e-06	1.462433e-05	1.611785e-04	1.129249e-06	1.000008e+00	1.000002e+00	9.434936e-01	1.000006e+00	
52	3.983870e-10	0.000000e+00	1.000018e+00	1.000028e+00	2.620985e-04	1.000008e+00	3.400708e-06	1.209356e-05	-3.247312e-05	1.761414e-06	1.000008e+00	1.000004e+00	9.586634e-01	1.000002e+00	
53	4.083870e-10	0.000000e+00	1.000010e+00	1.000020e+00	1.940735e-04	1.000006e+00	1.074429e-06	7.586202e-06	1.036183e-04	4.921171e-07	1.000004e+00	1.000000e+00	9.697689e-01	1.000003e+00	
54	4.183870e-10	0.000000e+00	1.000011e+00	1.000015e+00	1.409606e-04	1.000005e+00	1.976895e-06	6.589016e-06	-3.238207e-05	1.026821e-06	1.000005e+00	1.000003e+00	9.778806e-01	1.000001e+00	
55	4.283870e-10	0.000000e+00	1.000005e+00	1.000010e+00	1.056197e-04	1.000003e+00	4.295466e-07	3.903412e-06	6.804259e-05	1.869624e-07	1.000002e+00	9.999992e-01	9.838238e-01	1.000002e+00	
56	4.383870e-10	0.000000e+00	1.000006e+00	1.000008e+00	7.621347e-05	1.000002e+00	1.172495e-06	3.620736e-06	-2.809972e-05	6.087542e-07	1.000003e+00	1.000003e+00	9.881527e-01	1.000000e+00	
57	4.483870e-10	0.000000e+00	1.000002e+00	1.000006e+00	5.798039e-05	1.000002e+00	1.276980e-07	1.984351e-06	4.553403e-05	4.838965e-08	1.000000e+00	9.999988e-01	9.913293e-01	1.000002e+00	
58	4.583870e-10	0.000000e+00	1.000004e+00	1.000004e+00	4.165965e-05	1.000001e+00	7.099663e-07	2.009338e-06	-2.277858e-05	3.664426e-07	1.000002e+00	1.000002e+00	9.936363e-01	9.999998e-01	
59	4.683870e-10	0.000000e+00	1.000000e+00	1.000003e+00	3.237864e-05	1.000001e+00	-3.904141e-09	9.891366e-07	3.096443e-05	-8.693850e-09	9.999998e-01	9.999987e-01	9.953339e-01	1.000001e+00	
60	4.783870e-10	0.000000e+00	1.000003e+00	1.000002e+00	2.327682e-05	1.000001e+00	4.390120e-07	1.128891e-06	-1.775223e-05	2.233298e-07	1.000002e+00	1.000002e+00	9.965620e-01	9.999996e-01	
61	4.883870e-10	0.000000e+00	9.999996e-01	1.000002e+00	1.863674e-05	1.000001e+00	-5.316820e-08	4.777076e-07	2.134124e-05	-2.725658e-08	9.999995e-01	9.999987e-01	9.974696e-01	1.000001e+00	
62	4.983870e-10	0.000000e+00	1.000002e+00	1.000001e+00	1.351684e-05	1.000000e+00	2.769817e-07	6.439188e-07	-1.349481e-05	1.370964e-07	1.000001e+00	1.000001e+00	9.981224e-01	9.999994e-01	
63	5.083870e-10	0.000000e+00	9.999991e-01	1.000001e+00	1.126057e-05	1.000000e+00	-6.445574e-08	2.185864e-07	1.487241e-05	-2.874778e-08	9.999993e-01	9.999988e-01	9.986083e-01	1.000001e+00	
64	5.183870e-10	0.000000e+00	1.000002e+00	1.000001e+00	8.345034e-06	1.000000e+00	1.779418e-07	3.740730e-07	-1.008813e-05	8.407201e-08	1.000001e+00	1.000001e+00	9.989546e-01	9.999994e-01	
65	5.283870e-10	0.000000e+00	9.999989e-01	1.000001e+00	7.297351e-06	1.000000e+00	-5.971879e-08	9.013080e-08	1.045887e-05	-2.360633e-08	9.999993e-01	9.999990e-01	9.992154e-01	1.000001e+00	
66	5.383870e-10	0.000000e+00	1.000002e+00	1.000000e+00	5.610878e-06	1.000000e+00	1.160358e-07	2.220408e-07	-7.452668e-06	5.082876e-08	1.000001e+00	1.000001e+00	9.993984e-01	9.999994e-01	
67	5.483870e-10	0.000000e+00	9.999988e-01	1.000000e+00	5.163884e-06	1.000000e+00	-4.946704e-08	2.862340e-08	7.410516e-06	-1.669517e-08	9.999993e-01	9.999992e-01	9.995389e-01	1.000001e+00	
68	5.583870e-10	0.000000e+00	1.000001e+00	1.000000e+00	4.169866e-06	1.000000e+00	7.648740e-08	1.350783e-07	-5.457259e-06	2.962286e-08	1.000001e+00	1.000001e+00	9.996351e-01	9.999994e-01	
69	5.683870e-10	0.000000e+00	9.999987e-01	1.000000e+00	4.012135e-06	1.000000e+00	-3.845247e-08	8.698554e-10	5.284237e-06	-1.010576e-08	9.999993e-01	9.999994e-01	9.997113e-01	1.000001e+00	
70	5.783870e-10	0.000000e+00	1.000001e+00	9.999999e-01	3.413599e-06	9.999999e-01	5.070304e-08	8.443802e-08	-3.968027e-06	1.590395e-08	1.000001e+00	1.000001e+00	9.997613e-01	9.999994e-01	
71	5.883870e-10	0.000000e+00	9.999987e-01	1.000000e+00	3.387905e-06	1.000000e+00	-2.859813e-08	-1.028091e-08	3.789536e-06	-4.593720e-09	9.999993e-01	9.999995e-01	9.998032e-01	1.000001e+00	
72	5.983870e-10	0.000000e+00	1.000001e+00	9.999999e-01	3.019046e-06	9.999999e-01	3.358535e-08	5.433992e-08	-2.867508e-06	6.942252e-09	1.000001e+00	1.000000e+00	9.998286e-01	9.999994e-01	
73	6.083870e-10	0.000000e+00	9.999987e-01	1.000000e+00	3.047777e-06	1.000000e+00	-2.049040e-08	-1.358343e-08	2.732431e-06	-3.036533e-10	9.999993e-01	9.999997e-01	9.998522e-01	1.000001e+00	
74	6.183870e-10	0.000000e+00	1.000001e+00	9.999999e-01	2.814939e-06	9.999999e-01	2.204495e-08	3.604412e-08	-2.059866e-06	1.063731e-09	1.000001e+00	1.000000e+00	9.998645e-01	9.999995e-01	
75	6.283870e-10	0.000000e+00	9.999987e-01	1.000000e+00	2.861146e-06	1.000000e+00	-1.412598e-08	-1.342586e-08	1.981316e-06	2.872997e-09	9.999994e-01	9.999998e-01	9.998782e-01	1.000001e+00	
76	6.383870e-10	0.000000e+00	1.000001e+00	9.999998e-01	2.710644e-06	9.999999e-01	1.416692e-08	2.465526e-08	-1.470076e-06	-2.781421e-09	1.000001e+00	1.000000e+00	9.998837e-01	9.999995e-01	
77	6.483870e-10	0.000000e+00	9.999987e-01	1.000000e+00	2.757801e-06	1.000000e+00	-9.275651e-09	-1.194692e-08	1.445714e-06	5.127590e-09	9.999994e-01	1.000000e+00	9.998921e-01	1.000001e+00	
78	6.583870e-10	0.000000e+00	1.000001e+00	9.999998e-01	2.658327e-06	9.999999e-01	8.737373e-09	1.739349e-08	-1.040894e-06	-5.266019e-09	1.000001e+00	1.000000e+00	9.998939e-01	9.999995e-01	
79	6.683870e-10	0.000000e+00	9.999987e-01	1.000000e+00	2.699905e-06	1.000000e+00	-5.653334e-09	-1.014220e-08	1.062752e-06	6.658081e-09	9.999994e-01	1.000000e+00	9.998995e-01	1.000000e+00	
80	6.783870e-10	0.000000e+00	1.000001e+00	9.999998e-01	2.632832e-06	9.999999e-01	4.970127e-09	1.265417e-08	-7.293779e-07	-6.830057e-09	1.000001e+00	9.999998e-01	9.998994e-01	9.999995e-01	
81	6.883870e-10	0.000000e+00	9.999987e-01	1.000000e+00	2.666992e-06	1.000000e+00	-2.988492e-09	-8.438289e-09	7.883642e-07	7.638913e-09	9.999994e-01	1.000000e+00	9.999034e-01	1.000000e+00	
82	6.983870e-10	0.000000e+00	1.000001e+00	9.999998e-01	2.620994e-06	9.999999e-01	2.345880e-09	9.493381e-09	-5.036791e-07	-7.766481e-09	1.000001e+00	9.999997e-01	9.999023e-01	9.999995e-01	
83	7.083870e-10	0.000000e+00	9.999987e-01	1.000000e+00	2.647943e-06	1.000000e+00	-1.051871e-09	-6.987397e-09	5.914581e-07	8.212534e-09	9.999995e-01	1.000000e+00	9.999055e-01	1.000000e+00	
84	7.183870e-10	0.000000e+00	1.000001e+00	9.999998e-01	2.615974e-06	9.999999e-01	5.156244e-10	7.344070e-09	-3.403684e-07	-8.273330e-09	1.000001e+00	9.999996e-01	9.999039e-01	9.999996e-01	
85	7.283870e-10	0.000000e+00	9.999987e-01	1.000000e+00	2.636678e-06	1.000000e+00	3.399952e-10	-5.816419e-09	4.499816e-07	8.490321e-09	9.999995e-01	1.000000e+00	9.999066e-01	1.000000e+00	
86	7.383870e-10	0.000000e+00	1.000001e+00	9.999998e-01	2.614254e-06	9.999999e-01	-7.586786e-10	5.857819e-09	-2.223065e-07	-8.486166e-09	1.000000e+00	9.999995e-01	9.999048e-01	9.999996e-01	
87	7.483870e-10	0.000000e+00	9.999987e-01	1.000000e+00	2.629847e-06	1.000000e+00	1.329030e-09	-4.900496e-09	3.482327e-07	8.557007e-09	9.999995e-01	1.000001e+00	9.999072e-01	1.000000e+00	
88	7.583870e-10	0.000000e+00	1.000001e+00	9.999999e-01	2.614050e-06	9.999999e-01	-1.641370e-09	4.815565e-09	-1.370070e-07	-8.498684e-09	1.000000e+00	9.999994e-01	9.999052e-01	9.999996e-01	
89	7.683870e-10	0.000000e+00	9.999987e-01	1.000000e+00	2.625588e-06	1.000000e+00	2.022670e-09	-4.198042e-09	2.749972e-07	8.475862e-09	9.999995e-01	1.000001e+00	9.999075e-01	1.000000e+00	
90	7.783870e-10	0.000000e+00	1.000001e+00	9.999999e-01	2.614478e-06	9.999999e-01	-2.247024e-09	4.076427e-09	-7.539962e-08	-8.376109e-09	1.000000e+00	9.999993e-01	9.999055e-01	9.999996e-01	
91	7.883870e-10	0.000000e+00	9.999987e-01	1.000000e+00	2.622849e-06	1.000000e+00	2.501068e-09	-3.666383e-09	2.222483e-07	8.293494e-09	9.999996e-01	1.000001e+00	9.999076e-01	1.000000e+00	
92	7.983870e-10	0.000000e+00	1.000001e+00	9.999999e-01	2.615116e-06	9.999999e-01	-2.656137e-09	3.547853e-09	-3.091006e-08	-8.164058e-09	1.000000e+00	9.999992e-01	9.999056e-01	9.999996e-01	
93	8.083870e-10	0.000000e+00	9.999987e-01	1.000000e+00	2.621030e-06	1.000000e+00	2.823432e-09	-3.267914e-09	1.842304e-07	8.043875e-09	9.999996e-01	1.000001e+00	9.999077e-01	1.000000e+00	
94	8.183870e-10	0.000000e+00	1.000001e+00	9.999999e-01	2.615772e-06	9.999999e-01	-2.925599e-09	3.167848e-09	1.219577e-09	-7.894517e-09	1.000000e+00	9.999991e-01	9.999057e-01	9.999996e-01	
95	8.283870e-10	0.000000e+00	9.999987e-01	1.000000e+00	2.619781e-06	1.000000e+00	3.033182e-09	-2.971804e-09	1.568118e-07	7.751544e-09	9.999996e-01	1.000001e+00	9.999077e-01	1.000000e+00	
96	8.383870e-10	0.000000e+00	1.000001e+00	9.999999e-01	2.616369e-06	9.999999e-01	-3.095800e-09	2.894170e-09	2.442868e-08	-7.589919e-09	1.000000e+00	9.999990e-01	9.999057e-01	9.999997e-01	
97	8.483870e-10	0.000000e+00	9.999987e-01	1.000000e+00	2.618895e-06	1.000000e+00	3.161999e-09	-2.753775e-09	1.370231e-07	7.434076e-09	9.999996e-01	1.000001e+00	9.999077e-01	1.000000e+00	
98	8.583870e-10	0.000000e+00	1.000001e+00	9.999999e-01	2.616885e-06	9.999999e-01	-3.195507e-09	2.697604e-09	4.120142e-08	-7.265963e-09	1.000000e+00	9.999989e-01	9.999058e-01	9.999997e-01	
99	8.683870e-10	0.000000e+00	9.999987e-01	1.000000e+00	2.618245e-06	1.000000e+00	3.232910e-09	-2.595165e-09	1.227291e-07	7.103948e-09	9.999996e-01	1.000001e+00	9.999077e-01	1.000000e+00	
100	8.783870e-10	0.000000e+00	1.000001e+00	9.999999e-01	2.617320e-06	9.999999e-01	-3.245261e-09	2.557684e-09	5.333095e-08	-6.933588e-09	1.000000e+00	9.999989e-01	9.999058e-01	9.999997e-01	
101	8.883870e-10	0.000000e+00	9.999987e-01	1.000000e+00	2.617754e-06	1.000000e+00	3.262604e-09	-2.481836e-09	1.123937e-07	6.769924e-09	9.999997e-01	1.000001e+00	9.999077e-01	1.000000e+00	
102	8.983870e-10	0.000000e+00	1.000001e+00	9.999999e-01	2.617684e-06	9.999999e-01	-3.259752e-09	2.459912e-09	6.211108e-08	-6.600353e-09	1.000000e+00	9.999988e-01	9.999058e-01	9.999997e-01	
103	9.083870e-10	0.000000e+00	9.999987e-01	1.000000e+00	2.617371e-06	1.000000e+00	3.263143e-09	-2.403177e-09	1.049111e-07	6.438078e-09	9.999997e-01	1.000001e+00	9.999077e-01	1.000000e+00	
104	9.183870e-10	0.000000e+00	1.000001e+00	9.999999e-01	2.617989e-06	9.999999e-01	-3.249496e-09	2.393916e-09	6.847500e-08	-6.271419e-09	1.000000e+00	9.999987e-01	9.999058e-01	9.999997e-01	
105	9.283870e-10	0.000000e+00	9.999987e-01	1.000000e+00	2.617063e-06	1.000000e+00	3.243235e-09	-2.351252e-09	9.948487e-08	6.112548e-09	9.999997e-01	1.000001e+00	9.999077e-01	1.000000e+00	
106	9.383870e-10	0.000000e+00	1.000001e+00	9.999999e-01	2.618248e-06	9.999999e-01	-3.222022e-09	2.352205e-09	7.309568e-08	-5.950240e-09	1.000000e+00	9.999987e-01	9.999058e-01	9.999997e-01	
107	9.483870e-10	0.000000e+00	9.999987e-01	1.000000e+00	2.616810e-06	1.000000e+00	3.209149e-09	-2.320140e-09	9.554179e-08	5.796082e-09	9.999997e-01	1.000001e+00	9.999077e-01	1.000000e+00	
108	9.583870e-10	0.000000e+00	1.000001e+00	9.999999e-01	2.618469e-06	1.000000e+00	-3.182724e-09	2.329320e-09	7.645834e-08	-5.639061e-09	1.000000e+00	9.999986e-01	9.999058e-01	9.999997e-01	
109	9.683870e-10	0.000000e+00	9.999987e-01	1.000000e+00	2.616597e-06	1.000000e+00	3.165391e-09	-2.305413e-09	9.266872e-08	5.490430e-09	9.999997e-01	1.000001e+00	9.999077e-01	1.000000e+00	
110	9.783870e-10	0.000000e+00	1.000001e+00	9.999999e-01	2.618661e-06	1.000000e+00	-3.135460e-09	2.321245e-09	7.891282e-08	-5.339270e-09	1.000000e+00	9.999986e-01	9.999059e-01	9.999998e-01	
111	9.883870e-10	0.000000e+00	9.999987e-01	1.000000e+00	2.616413e-06	1.000000e+00	3.115196e-09	-2.303745e-09	9.056808e-08	5.196638e-09	9.999997e-01	1.000001e+00	9.999077e-01	1.000000e+00	
112	9.983870e-10	0.000000e+00	1.000001e+00	9.999999e-01	2.618830e-06	1.000000e+00	-3.082988e-09	2.324998e-09	8.071135e-08	-5.051652e-09	1.000000e+00	9.999985e-01	9.999059e-01	9.999998e-01	
113	1.008387e-09	0.000000e+00	9.999987e-01	1.000000e+00	2.616252e-06	1.000000e+00	3.060877e-09	-2.312626e-09	8.902539e-08	4.915253e-09	9.999997e-01	1.000002e+00	9.999077e-01	1.000000e+00	
114	1.018387e-09	0.000000e+00	1.000001e+00	9.999999e-01	2.618980e-06	1.000000e+00	-3.027275e-09	2.338338e-09	8.203575e-08	-4.776567e-09	1.000000e+00	9.999985e-01	9.999059e-01	9.999998e-01	
115	1.028387e-09	0.000000e+00	9.999988e-01	1.000000e+00	2.616108e-06	1.000000e+00	3.004086e-09	-2.330142e-09	8.788610e-08	4.646469e-09	9.999997e-01	1.000002e+00	9.999077e-01	1.000000e+00	
116	1.038387e-09	0.000000e+00	1.000001e+00	9.999999e-01	2.619116e-06	1.000000e+00	-2.969720e-09	2.359560e-09	8.301715e-08	-4.514083e-09	1.000000e+00	9.999984e-01	9.999059e-01	9.999998e-01	
117	1.048387e-09	0.000000e+00	9.999988e-01	1.000000e+00	2.615979e-06	1.000000e+00	2.945995e-09	-2.354818e-09	8.703879e-08	4.390240e-09	9.999998e-01	1.000002e+00	9.999077e-01	1.000000e+00	
118	1.058387e-09	0.000000e+00	1.000001e+00	9.999999e-01	2.619239e-06	1.000000e+00	-2.911312e-09	2.387350e-09	8.375009e-08	-4.264062e-09	1.000000e+00	9.999984e-01	9.999059e-01	9.999998e-01	
119	1.068387e-09	0.000000e+00	9.999988e-01	1.000000e+00	2.615861e-06	1.000000e+00	2.887435e-09	-2.385505e-09	8.640312e-08	4.146354e-09	9.999998e-01	1.000002e+00	9.999076e-01	1.000000e+00	
120	1.078387e-09	0.000000e+00	1.000001e+00	9.999999e-01	2.619352e-06	1.000000e+00	-2.852751e-09	2.420679e-09	8.430277e-08	-4.026233e-09	1.000000e+00	9.999983e-01	9.999059e-01	9.999998e-01	
121	1.088387e-09	0.000000e+00	9.999988e-01	1.000000e+00	2.615752e-06	1.000000e+00	2.828988e-09	-2.421293e-09	8.592113e-08	3.914489e-09	9.999998e-01	1.000002e+00	9.999076e-01	1.000000e+00	
122	1.098387e-09	0.000000e+00	1.000001e+00	9.999999e-01	2.619456e-06	1.000000e+00	-2.794521e-09	2.458727e-09	8.472438e-08	-3.800235e-09	1.000000e+00	9.999983e-01	9.999059e-01	9.999998e-01	
123	1.108387e-09	0.000000e+00	9.999988e-01	1.000000e+00	2.615651e-06	1.000000e+00	2.771057e-09	-2.461448e-09	8.555103e-08	3.694253e-09	9.999998e-01	1.000002e+00	9.999076e-01	1.000000e+00	
124	1.118387e-09	0.000000e+00	1.000001e+00	9.999999e-01	2.619553e-06	1.000000e+00	-2.736960e-09	2.500832e-09	8.505043e-08	-3.585652e-09	1.000000e+00	9.999983e-01	9.999059e-01	9.999998e-01	
125	1.128387e-09	0.000000e+00	9.999988e-01	1.000000e+00	2.615558e-06	1.000000e+00	2.713921e-09	-2.505373e-09	8.526263e-08	3.485209e-09	9.999998e-01	1.000002e+00	9.999076e-01	1.000000e+00	
126	1.138387e-09	0.000000e+00	1.000001e+00	9.999999e-01	2.619644e-06	1.000000e+00	-2.680295e-09	2.546447e-09	8.530656e-08	-3.382034e-09	1.000000e+00	9.999982e-01	9.999059e-01	9.999998e-01	
127	1.148387e-09	0.000000e+00	9.999988e-01	1.000000e+00	2.615470e-06	1.000000e+00	2.657764e-09	-2.552567e-09	8.503415e-08	3.286900e-09	9.999998e-01	1.000002e+00	9.999076e-01	1.000000e+00	
128	1.158387e-09	0.000000e+00	1.000001e+00	9.999999e-01	2.619729e-06	1.000000e+00	-2.624676e-09	2.595113e-09	8.551130e-08	-3.188916e-09	1.000000e+00	9.999982e-01	9.999059e-01	9.999998e-01	
129	1.168387e-09	0.000000e+00	9.999988e-01	1.000000e+00	2.615388e-06	1.000000e+00	2.602707e-09	-2.602609e-09	8.484983e-08	3.098856e-09	9.999998e-01	1.000002e+00	9.999076e-01	1.000000e+00	
130	1.178387e-09	0.000000e+00	1.000001e+00	9.999999e-01	2.619808e-06	1.000000e+00	-2.570200e-09	2.646439e-09	8.567803e-08	-3.005830e-09	1.000000e+00	9.999982e-01	9.999060e-01	9.999999e-01	
131	1.188387e-09	0.000000e+00	9.999988e-01	1.000000e+00	2.615310e-06	1.000000e+00	2.548824e-09	-2.655135e-09	8.469827e-08	2.920611e-09	9.999998e-01	1.000002e+00	9.999076e-01	1.000000e+00	
132	1.198387e-09	0.000000e+00	1.000001e+00	9.999999e-01	2.619883e-06	1.000000e+00	-2.516921e-09	2.700086e-09	8.581646e-08	-2.832311e-09	1.000000e+00	9.999982e-01	9.999060e-01	9.999999e-01	
133	1.208387e-09	0.000000e+00	9.999988e-01	1.000000e+00	2.615238e-06	1.000000e+00	2.496156e-09	-2.709830e-09	8.457122e-08	2.751704e-09	9.999998e-01	1.000002e+00	9.999076e-01	1.000000e+00	
134	1.218387e-09	0.000000e+00	1.000001e+00	9.999999e-01	2.619954e-06	1.000000e+00	-2.464868e-09	2.755758e-09	8.593362e-08	-2.667903e-09	1.000000e+00	9.999981e-01	9.999060e-01	9.999999e-01	
135	1.228387e-09	0.000000e+00	9.999988e-01	1.000000e+00	2.615169e-06	1.000000e+00	2.444720e-09	-2.766413e-09	8.446268e-08	2.591685e-09	9.999998e-01	1.000002e+00	9.999076e-01	1.000000e+00	
136	1.238387e-09	0.000000e+00	1.000001e+00	9.999999e-01	2.620021e-06	1.000000e+00	-2.414050e-09	2.813190e-09	8.603462e-08	-2.512163e-09	1.000000e+00	9.999981e-01	9.999060e-01	9.999999e-01	
137	1.248387e-09	0.000000e+00	9.999988e-01	1.000000e+00	2.615104e-06	1.000000e+00	2.394518e-09	-2.824635e-09	8.436830e-08	2.440118e-09	9.999998e-01	1.000002e+00	9.999076e-01	1.000000e+00	
138	1.258387e-09	0.000000e+00	1.000001e+00	9.999999e-01	2.620084e-06	1.000000e+00	-2.364462e-09	2.872145e-09	8.612318e-08	-2.364665e-09	1.000000e+00	9.999981e-01	9.999060e-01	9.999999e-01	
139	1.268387e-09	0.000000e+00	9.999988e-01	1.000000e+00	2.615043e-06	1.000000e+00	2.345540e-09	-2.884269e-09	8.428489e-08	2.296584e-09	9.999998e-01	1.000002e+00	9.999076e-01	1.000000e+00	
140	1.278387e-09	0.000000e+00	1.000001e+00	9.999999e-01	2.620143e-06	1.000000e+00	-2.316089e-09	2.932407e-09	8.620201e-08	-2.224995e-09	1.000000e+00	9.999981e-01	9.999060e-01	9.999999e-01	
141	1.288387e-09	0.000000e+00	9.999988e-01	1.000000e+00	2.614985e-06	1.000000e+00	2.297768e-09	-2.945111e-09	8.421014e-08	2.160681e-09	9.999998e-01	1.000002e+00	9.999075e-01	1.000000e+00	
142	1.298387e-09	0.000000e+00	1.000001e+00	9.999999e-01	2.620199e-06	1.000000e+00	-2.268912e-09	2.993783e-09	8.627311e-08	-2.092761e-09	1.000000e+00	9.999981e-01	9.999060e-01	9.999999e-01	
143	1.308387e-09	0.000000e+00	9.999988e-01	1.000000e+00	2.614930e-06	1.000000e+00	2.251180e-09	-3.006975e-09	8.414233e-08	2.032022e-09	9.999999e-01	1.000002e+00	9.999075e-01	1.000000e+00	
144	1.318387e-09	0.000000e+00	1.000001e+00	9.999999e-01	2.620252e-06	1.000000e+00	-2.222905e-09	3.056092e-09	8.633794e-08	-1.967585e-09	1.000000e+00	9.999980e-01	9.999060e-01	9.999999e-01	
145	1.328387e-09	0.000000e+00	9.999988e-01	1.000000e+00	2.614879e-06	1.000000e+00	2.205748e-09	-3.069689e-09	8.408020e-08	1.910239e-09	9.999999e-01	1.000002e+00	9.999075e-01	1.000000e+00	
146	1.338387e-09	0.000000e+00	1.000001e+00	9.999999e-01	2.620303e-06	1.000000e+00	-2.178042e-09	3.119170e-09	8.639760e-08	-1.849108e-09	1.000000e+00	9.999980e-01	9.999060e-01	9.999999e-01	
147	1.348387e-09	0.000000e+00	9.999988e-01	1.000000e+00	2.614830e-06	1.000000e+00	2.161445e-09	-3.133094e-09	8.402281e-08	1.794982e-09	9.999999e-01	1.000002e+00	9.999075e-01	1.000000e+00	
148	1.358387e-09	0.000000e+00	1.000001e+00	9.999999e-01	2.620350e-06	1.000000e+00	-2.134292e-09	3.182865e-09	8.645291e-08	-1.736987e-09	1.000000e+00	9.999980e-01	9.999060e-01	9.999999e-01	
149	1.368387e-09	0.000000e+00	9.999988e-01	1.000000e+00	2.614784e-06	1.000000e+00	2.118241e-09	-3.197044e-09	8.396944e-08	1.685916e-09	9.999999e-01	1.000002e+00	9.999075e-01	1.000000e+00	
150	1.378387e-09	0.000000e+00	1.000001e+00	9.999999e-01	2.620395e-06	1.000000e+00	-2.091627e-09	3.247037e-09	8.650448e-08	-1.630896e-09	1.000000e+00	9.999980e-01	9.999060e-01	9.999999e-01	
151	1.388387e-09	0.000000e+00	9.999988e-01	1.000000e+00	2.614740e-06	1.000000e+00	2.076107e-09	-3.261404e-09	8.391956e-08	1.582722e-09	9.999999e-01	1.000002e+00	9.999075e-01	1.000000e+00	
152	1.398387e-09	0.000000e+00	1.000001e+00	9.999999e-01	2.620437e-06	1.000000e+00	-2.050016e-09	3.311554e-09	8.655278e-08	-1.530524e-09	1.000000e+00	9.999980e-01	9.999061e-01	9.999999e-01	
153	1.408387e-09	0.000000e+00	9.999988e-01	1.000000e+00	2.614699e-06	1.000000e+00	2.035013e-09	-3.326048e-09	8.387275e-08	1.485098e-09	9.999999e-01	1.000002e+00	9.999075e-01	1.000000e+00	
154	1.418387e-09	0.000000e+00	1.000001e+00	9.999999e-01	2.620477e-06	1.000000e+00	-2.009431e-09	3.376297e-09	8.659817e-08	-1.435577e-09	1.000000e+00	9.999980e-01	9.999061e-01	9.999999e-01	
155	1.428387e-09	0.000000e+00	9.999988e-01	1.000000e+00	2.614660e-06	1.000000e+00	1.994929e-09	-3.390861e-09	8.382869e-08	1.392757e-09	9.999999e-01	1.000002e+00	9.999075e-01	1.000000e+00	
156	1.438387e-09	0.000000e+00	1.000001e+00	9.999999e-01	2.620515e-06	1.000000e+00	-1.969841e-09	3.441153e-09	8.664096e-08	-1.345773e-09	1.000000e+00	9.999980e-01	9.999061e-01	9.999999e-01	
157	1.448387e-09	0.000000e+00	9.999988e-01	1.000000e+00	2.614624e-06	1.000000e+00	1.955826e-09	-3.455735e-09	8.378712e-08	1.305424e-09	9.999999e-01	1.000002e+00	9.999075e-01	1.000000e+00	
158	1.458387e-09	0.000000e+00	1.000001e+00	9.999999e-01	2.620551e-06	1.000000e+00	-1.931218e-09	3.506019e-09	8.668136e-08	-1.260847e-09	1.000000e+00	9.999980e-01	9.999061e-01	9.999999e-01	
159	1.468387e-09	0.000000e+00	9.999988e-01	1.000000e+00	2.614589e-06	1.000000e+00	1.917677e-09	-3.520569e-09	8.374784e-08	1.222841e-09	9.999999e-01	1.000002e+00	9.999075e-01	1.000000e+00	
160	1.478387e-09	0.000000e+00	1.000001e+00	9.999999e-01	2.620584e-06	1.000000e+00	-1.893535e-09	3.570798e-09	8.671957e-08	-1.180545e-09	1.000000e+00	9.999980e-01	9.999061e-01	9.999999e-01	
161	1.488387e-09	0.000000e+00	9.999988e-01	1.000000e+00	2.614557e-06	1.000000e+00	1.880453e-09	-3.585271e-09	8.371067e-08	1.144761e-09	9.999999e-01	1.000002e+00	9.999075e-01	1.000000e+00	
162	1.498387e-09	0.000000e+00	1.000001e+00	9.999999e-01	2.620616e-06	1.000000e+00	-1.856764e-09	3.635401e-09	8.675574e-08	-1.104628e-09	1.000000e+00	9.999980e-01	9.999061e-01	9.999999e-01	
163	1.508387e-09	0.000000e+00	9.999988e-01	1.000000e+00	2.614526e-06	1.000000e+00	1.844128e-09	-3.649754e-09	8.367546e-08	1.070950e-09	9.999999e-01	1.000002e+00	9.999075e-01	1.000000e+00	
164	1.518387e-09	0.000000e+00	1.000001e+00	9.999999e-01	2.620645e-06	1.000000e+00	-1.820879e-09	3.699745e-09	8.679001e-08	-1.032868e-09	1.000000e+00	9.999980e-01	9.999061e-01	9.999999e-01	
165	1.528387e-09	0.000000e+00	9.999988e-01	1.000000e+00	2.614497e-06	1.000000e+00	1.808676e-09	-3.713939e-09	8.364209e-08	1.001186e-09	9.999999e-01	1.000002e+00	9.999074e-01	1.000000e+00	
166	1.538387e-09	0.000000e+00	1.000001e+00	9.999999e-01	2.620673e-06	1.000000e+00	-1.785854e-09	3.763753e-09	8.682250e-08	-9.650481e-10	1.000000e+00	9.999980e-01	9.999061e-01	9.999999e-01	
167	1.548387e-09	0.000000e+00	9.999988e-01	1.000000e+00	2.614470e-06	1.000000e+00	1.774072e-09	-3.777752e-09	8.361046e-08	9.352589e-10	9.999999e-01	1.000002e+00	9.999074e-01	1.000000e+00	
168	1.558387e-09	0.000000e+00	1.000001e+00	9.999999e-01	2.620700e-06	1.000000e+00	-1.751665e-09	3.827354e-09	8.685330e-08	-9.009630e-10	1.000000e+00	9.999980e-01	9.999061e-01	9.999999e-01	
169	1.568387e-09	0.000000e+00	9.999988e-01	1.000000e+00	2.614445e-06	1.000000e+00	1.740292e-09	-3.841126e-09	8.358047e-08	8.729676e-10	9.999999e-01	1.000002e+00	9.999074e-01	1.000000e+00	
170	1.578387e-09	0.000000e+00	1.000001e+00	9.999999e-01	2.620724e-06	1.000000e+00	-1.718288e-09	3.890484e-09	8.688251e-08	-8.404180e-10	1.000000e+00	9.999980e-01	9.999061e-01	9.999999e-01	
171	1.588387e-09	0.000000e+00	9.999989e-01	1.000000e+00	2.614421e-06	1.000000e+00	1.707313e-09	-3.903996e-09	8.355203e-08	8.141227e-10	9.999999e-01	1.000002e+00	9.999074e-01	1.000000e+00	
172	1.598387e-09	0.000000e+00	1.000001e+00	9.999999e-01	2.620747e-06	1.000000e+00	-1.685700e-09	3.953081e-09	8.691020e-08	-7.832283e-10	1.000000e+00	9.999980e-01	9.999061e-01	1.000000e+00	
173	1.608387e-09	0.000000e+00	9.999989e-01	1.000000e+00	2.614398e-06	1.000000e+00	1.675111e-09	-3.966306e-09	8.352506e-08	7.585442e-10	9.999999e-01	1.000002e+00	9.999074e-01	1.000000e+00	
174	1.618387e-09	0.000000e+00	1.000001e+00	9.999999e-01	2.620769e-06	1.000000e+00	-1.653879e-09	4.015090e-09	8.693646e-08	-7.292183e-10	1.000000e+00	9.999980e-01	9.999061e-01	1.000000e+00	
175	1.628387e-09	0.000000e+00	9.999989e-01	1.000000e+00	2.614377e-06	1.000000e+00	1.643665e-09	-4.028001e-09	8.349949e-08	7.060612e-10	9.999999e-01	1.000002e+00	9.999074e-01	1.000000e+00	
176	1.638387e-09	0.000000e+00	1.000001e+00	9.999999e-01	2.620789e-06	1.000000e+00	-1.622804e-09	4.076459e-09	8.696135e-08	-6.782217e-10	1.000000e+00	9.999980e-01	9.999061e-01	1.000000e+00	
177	1.648387e-09	0.000000e+00	9.999989e-01	1.000000e+00	2.614358e-06	1.000000e+00	1.612955e-09	-4.089033e-09	8.347526e-08	6.565116e-10	9.999999e-01	1.000002e+00	9.999074e-01	1.000000e+00	
178	1.658387e-09	0.000000e+00	1.000001e+00	9.999999e-01	2.620808e-06	1.000000e+00	-1.592453e-09	4.137143e-09	8.698494e-08	-6.300806e-10	1.000000e+00	9.999980e-01	9.999062e-01	1.000000e+00	
179	1.668387e-09	0.000000e+00	9.999989e-01	1.000000e+00	2.614340e-06	1.000000e+00	1.582959e-09	-4.149357e-09	8.345230e-08	6.097414e-10	9.999999e-01	1.000002e+00	9.999074e-01	1.000000e+00	
180	1.678387e-09	0.000000e+00	1.000001e+00	9.999999e-01	2.620826e-06	1.000000e+00	-1.562807e-09	4.197097e-09	8.700729e-08	-5.846450e-10	1.000000e+00	9.999980e-01	9.999062e-01	1.000000e+00	
181	1.688387e-09	0.000000e+00	9.999989e-01	1.000000e+00	2.614323e-06	1.000000e+00	1.553658e-09	-4.208933e-09	8.343055e-08	5.656048e-10	9.999999e-01	1.000002e+00	9.999074e-01	1.000000e+00	
182	1.698387e-09	0.000000e+00	1.000001e+00	9.999999e-01	2.620842e-06	1.000000e+00	-1.533847e-09	4.256284e-09	8.702845e-08	-5.417728e-10	1.000000e+00	9.999980e-01	9.999062e-01	1.000000e+00	
183	1.708387e-09	0.000000e+00	9.999989e-01	1.000000e+00	2.614307e-06	1.000000e+00	1.525033e-09	-4.267722e-09	8.340996e-08	5.239634e-10	9.999999e-01	1.000002e+00	9.999074e-01	1.000000e+00	
184	1.718387e-09	0.000000e+00	1.000001e+00	9.999999e-01	2.620857e-06	1.000000e+00	-1.505553e-09	4.314667e-09	8.704848e-08	-5.013292e-10	1.000000e+00	9.999980e-01	9.999062e-01	1.000000e+00	
185	1.728387e-09	0.000000e+00	9.999989e-01	1.000000e+00	2.614292e-06	1.000000e+00	1.497066e-09	-4.325691e-09	8.339048e-08	4.846857e-10	9.999999e-01	1.000002e+00	9.999074e-01	1.000000e+00	
186	1.738387e-09	0.000000e+00	1.000001e+00	9.999999e-01	2.620871e-06	1.000000e+00	-1.477908e-09	4.372215e-09	8.706743e-08	-4.631864e-10	1.000000e+00	9.999980e-01	9.999062e-01	1.000000e+00	
187	1.748387e-09	0.000000e+00	9.999989e-01	1.000000e+00	2.614279e-06	1.000000e+00	1.469739e-09	-4.382809e-09	8.337206e-08	4.476473e-10	9.999999e-01	1.000002e+00	9.999074e-01	1.000000e+00	
188	1.758387e-09	0.000000e+00	1.000001e+00	9.999999e-01	2.620885e-06	1.000000e+00	-1.450895e-09	4.428897e-09	8.708534e-08	-4.272228e-10	1.000000e+00	9.999980e-01	9.999062e-01	1.000000e+00	
189	1.768387e-09	0.000000e+00	9.999989e-01	1.000000e+00	2.614266e-06	1.000000e+00	1.443036e-09	-4.439050e-09	8.335464e-08	4.127298e-10	9.999999e-01	1.000002e+00	9.999074e-01	1.000000e+00	
190	1.778387e-09	0.000000e+00	1.000001e+00	9.999999e-01	2.620897e-06	1.000000e+00	-1.424497e-09	4.484689e-09	8.710226e-08	-3.933234e-10	1.000000e+00	9.999980e-01	9.999062e-01	1.000000e+00	
191	1.788387e-09	0.000000e+00	9.999989e-01	1.000000e+00	2.614255e-06	1.000000e+00	1.416938e-09	-4.494387e-09	8.333820e-08	3.798212e-10	9.999999e-01	1.000002e+00	9.999073e-01	1.000000e+00	
192	1.798387e-09	0.000000e+00	1.000001e+00	9.999999e-01	2.620908e-06	1.000000e+00	-1.398697e-09	4.539566e-09	8.711824e-08	-3.613790e-10	1.000000e+00	9.999981e-01	9.999062e-01	1.000000e+00	
193	1.808387e-09	0.000000e+00	9.999989e-01	1.000000e+00	2.614244e-06	1.000000e+00	1.391432e-09	-4.548799e-09	8.332268e-08	3.488151e-10	9.999999e-01	1.000002e+00	9.999073e-01	1.000000e+00	
194	1.818387e-09	0.000000e+00	1.000001e+00	9.999999e-01	2.620918e-06	1.000000e+00	-1.373480e-09	4.593509e-09	8.713331e-08	-3.312860e-10	1.000000e+00	9.999981e-01	9.999062e-01	1.000000e+00	
195	1.828387e-09	0.000000e+00	9.999989e-01	1.000000e+00	2.614234e-06	1.000000e+00	1.366500e-09	-4.602267e-09	8.330805e-08	3.196107e-10	9.999999e-01	1.000002e+00	9.999073e-01	1.000000e+00	
196	1.838387e-09	0.000000e+00	1.000001e+00	9.999999e-01	2.620927e-06	1.000000e+00	-1.348830e-09	4.646498e-09	8.714752e-08	-3.029462e-10	1.000000e+00	9.999981e-01	9.999062e-01	1.000000e+00	
197	1.848387e-09	0.000000e+00	9.999989e-01	1.000000e+00	2.614225e-06	1.000000e+00	1.342129e-09	-4.654773e-09	8.329426e-08	2.921123e-10	9.999999e-01	1.000002e+00	9.999073e-01	1.000000e+00	
198	1.858387e-09	0.000000e+00	1.000001e+00	9.999999e-01	2.620935e-06	1.000000e+00	-1.324733e-09	4.698518e-09	8.716089e-08	-2.762664e-10	1.000000e+00	9.999981e-01	9.999062e-01	1.000000e+00	
199	1.868387e-09	0.000000e+00	9.999989e-01	1.000000e+00	2.614217e-06	1.000000e+00	1.318303e-09	-4.706303e-09	8.328129e-08	2.662290e-10	9.999999e-01	1.000002e+00	9.999073e-01	1.000000e+00	
200	1.878387e-09	0.000000e+00	1.000001e+00	9.999999e-01	2.620943e-06	1.000000e+00	-1.301175e-09	4.749555e-09	8.717347e-08	-2.511582e-10	1.000000e+00	9.999981e-01	9.999062e-01	1.000000e+00	
201	1.888387e-09	0.000000e+00	9.999989e-01	1.000000e+00	2.614210e-06	1.000000e+00	1.295009e-09	-4.756844e-09	8.326909e-08	2.418749e-10	9.999999e-01	1.000002e+00	9.999073e-01	1.000000e+00	
202	1.898387e-09	0.000000e+00	1.000001e+00	9.999999e-01	2.620950e-06	1.000000e+00	-1.278141e-09	4.799597e-09	8.718530e-08	-2.275378e-10	1.000000e+00	9.999981e-01	9.999062e-01	1.000000e+00	
203	1.908387e-09	0.000000e+00	9.999989e-01	1.000000e+00	2.614204e-06	1.000000e+00	1.272233e-09	-4.806385e-09	8.325763e-08	2.189683e-10	9.999999e-01	1.000002e+00	9.999073e-01	1.000000e+00	
204	1.918387e-09	0.000000e+00	1.000001e+00	9.999999e-01	2.620956e-06	1.000000e+00	-1.255619e-09	4.848634e-09	8.719639e-08	-2.053257e-10	1.000000e+00	9.999981e-01	9.999062e-01	1.000000e+00	
205	1.928387e-09	0.000000e+00	9.999989e-01	1.000000e+00	2.614198e-06	1.000000e+00	1.249962e-09	-4.854917e-09	8.324689e-08	1.974318e-10	9.999999e-01	1.000002e+00	9.999073e-01	1.000000e+00	
206	1.938387e-09	0.000000e+00	1.000001e+00	1.000000e+00	2.620961e-06	1.000000e+00	-1.233596e-09	4.896659e-09	8.720679e-08	-1.844464e-10	1.000000e+00	9.999981e-01	9.999062e-01	1.000000e+00	
207	1.948387e-09	0.000000e+00	9.999989e-01	1.000000e+00	2.614193e-06	1.000000e+00	1.228183e-09	-4.902433e-09	8.323683e-08	1.771919e-10	9.999999e-01	1.000002e+00	9.999073e-01	1.000000e+00	
208	1.958387e-09	0.000000e+00	1.000001e+00	1.000000e+00	2.620966e-06	1.000000e+00	-1.212059e-09	4.943665e-09	8.721652e-08	-1.648285e-10	1.000000e+00	9.999981e-01	9.999063e-01	1.000000e+00	
209	1.968387e-09	0.000000e+00	9.999989e-01	1.000000e+00	2.614189e-06	1.000000e+00	1.206884e-09	-4.948928e-09	8.322742e-08	1.581790e-10	9.999999e-01	1.000002e+00	9.999073e-01	1.000000e+00	
210	1.978387e-09	0.000000e+00	1.000001e+00	1.000000e+00	2.620970e-06	1.000000e+00	-1.190995e-09	4.989647e-09	8.722562e-08	-1.464041e-10	1.000000e+00	9.999982e-01	9.999063e-01	1.000000e+00	
211	1.988387e-09	0.000000e+00	9.999989e-01	1.000000e+00	2.614185e-06	1.000000e+00	1.186053e-09	-4.994396e-09	8.321863e-08	1.403271e-10	9.999999e-01	1.000002e+00	9.999073e-01	1.000000e+00	
212	1.998387e-09	0.000000e+00	1.000001e+00	1.000000e+00	2.620974e-06	1.000000e+00	-1.170394e-09	5.034601e-09	8.723410e-08	-1.291090e-10	1.000000e+00	9.999982e-01	9.999063e-01	1.000000e+00	
213	2.000000e-09	0.000000e+00	9.999989e-01	1.000000e+00	2.614176e-06	1.000000e+00	1.114738e-09	-5.149559e-09	8.319174e-08	8.461748e-11	9.999999e-01	1.000002e+00	9.999073e-01	1.000000e+00	

                                                                                                              * spice from s1000s
                                                                                                              Transient Analysis  Fri Feb 20 21:56:54  2009
------------------------------------------------------------------------------------------------------------------------------------------------------------------------------------------------------------------------------------------------
Index   time            m.x1.m2#body    m.x1.m2#dbody   m.x1.m2#gate    m.x1.m2#sbody   n0              n1              n2              n3              n4              nseg_node_5     nseg_node_6     time            vdd             
------------------------------------------------------------------------------------------------------------------------------------------------------------------------------------------------------------------------------------------------
0	0.000000e+00	2.710698e-12	8.930349e-12	8.525608e-08	1.355349e-12	0.000000e+00	0.000000e+00	0.000000e+00	1.000000e+00	1.000000e+00	0.000000e+00	0.000000e+00	0.000000e+00	1.000000e+00	
1	1.000000e-13	-7.100327e-07	-2.923251e-06	-3.182993e-06	-2.179614e-07	4.223138e-06	-1.577094e-07	-1.577012e-07	9.999885e-01	9.999885e-01	8.118590e-08	-1.471456e-09	1.000000e-13	1.000000e+00	
2	2.000000e-13	-6.757835e-07	-2.812117e-06	-4.870854e-06	-2.915925e-07	7.939813e-06	-4.308088e-07	-4.307943e-07	9.999803e-01	9.999803e-01	2.306508e-07	-5.263794e-09	2.000000e-13	1.000000e+00	
3	4.000000e-13	-4.997800e-07	-2.108953e-06	-7.014948e-06	-2.944147e-07	1.471499e-05	-1.113082e-06	-1.113059e-06	9.999664e-01	9.999664e-01	6.481371e-07	-1.764868e-08	4.000000e-13	1.000000e+00	
4	8.000000e-13	-2.786471e-07	-1.249475e-06	-8.005107e-06	-1.425463e-07	2.541323e-05	-2.753094e-06	-2.753068e-06	9.999473e-01	9.999473e-01	2.035515e-06	-5.882979e-08	8.000000e-13	1.000000e+00	
5	1.600000e-12	-1.137834e-07	-5.196091e-07	-7.460037e-06	-6.574253e-08	3.962619e-05	-5.156444e-06	-5.156424e-06	9.999269e-01	9.999269e-01	5.952850e-06	-3.716246e-08	1.600000e-12	1.000000e+00	
6	3.200000e-12	-2.202090e-09	-2.048481e-08	-6.172127e-06	2.394225e-09	5.374153e-05	-5.793122e-06	-5.793114e-06	9.999145e-01	9.999145e-01	1.451697e-05	1.134827e-06	3.200000e-12	1.000000e+00	
7	6.400000e-12	3.215714e-09	-2.486871e-08	-1.186746e-06	-1.725507e-09	6.366684e-05	-2.259893e-07	-2.259860e-07	9.999120e-01	9.999120e-01	2.774552e-05	7.320987e-06	6.400000e-12	1.000000e+00	
8	1.280000e-11	1.648155e-08	3.654398e-08	1.428572e-05	1.131784e-08	6.998046e-05	1.514944e-05	1.514944e-05	9.999123e-01	9.999123e-01	4.263145e-05	2.304491e-05	1.280000e-11	1.000000e+00	
9	2.280000e-11	3.520591e-10	-2.977452e-08	3.579278e-05	-2.724438e-09	7.514094e-05	3.655350e-05	3.655350e-05	9.999119e-01	9.999119e-01	5.598676e-05	4.242541e-05	2.280000e-11	1.000000e+00	
10	3.280000e-11	1.213872e-08	3.433502e-08	5.200584e-05	8.824584e-09	7.864413e-05	5.242640e-05	5.242640e-05	9.999117e-01	9.999117e-01	6.540155e-05	5.598093e-05	3.280000e-11	1.000000e+00	
11	4.280000e-11	-3.335156e-09	-3.135131e-08	6.339725e-05	-4.258275e-09	8.121050e-05	6.376052e-05	6.376052e-05	9.999114e-01	9.999114e-01	7.211370e-05	6.590708e-05	4.280000e-11	1.000000e+00	
12	5.280000e-11	9.823529e-09	3.387312e-08	7.179962e-05	7.356395e-09	8.302876e-05	7.196481e-05	7.196481e-05	9.999114e-01	9.999114e-01	7.700373e-05	7.297856e-05	5.280000e-11	1.000000e+00	
13	6.280000e-11	-5.259511e-09	-3.238387e-08	7.769368e-05	-4.919998e-09	8.436591e-05	7.785315e-05	7.785314e-05	9.999112e-01	9.999112e-01	8.049395e-05	7.811236e-05	6.280000e-11	1.000000e+00	
14	7.280000e-11	8.631406e-09	3.374386e-08	8.207192e-05	6.462796e-09	8.530452e-05	8.210504e-05	8.210504e-05	9.999112e-01	9.999112e-01	8.302579e-05	8.178852e-05	7.280000e-11	1.000000e+00	
15	8.280000e-11	-6.262554e-09	-3.299606e-08	8.511040e-05	-5.132547e-09	8.600247e-05	8.516327e-05	8.516326e-05	9.999110e-01	9.999110e-01	8.483934e-05	8.444830e-05	8.280000e-11	1.000000e+00	
16	9.280000e-11	8.015143e-09	3.373832e-08	8.740107e-05	5.870467e-09	8.648525e-05	8.736660e-05	8.736660e-05	9.999111e-01	9.999111e-01	8.615137e-05	8.635742e-05	9.280000e-11	1.000000e+00	
17	1.028000e-10	-6.783502e-09	-3.336648e-08	8.895865e-05	-5.116475e-09	8.685163e-05	8.895529e-05	8.895529e-05	9.999110e-01	9.999110e-01	8.709308e-05	8.773631e-05	1.028000e-10	1.000000e+00	
18	1.128000e-10	7.694677e-09	3.378206e-08	9.016539e-05	5.439313e-09	8.709771e-05	9.009672e-05	9.009672e-05	9.999110e-01	9.999110e-01	8.777331e-05	8.872737e-05	1.128000e-10	1.000000e+00	
19	1.228000e-10	-7.051663e-09	-3.359930e-08	9.095568e-05	-4.986688e-09	8.729226e-05	9.092235e-05	9.092235e-05	9.999109e-01	9.999109e-01	8.826213e-05	8.944238e-05	1.228000e-10	1.000000e+00	
20	1.328000e-10	7.524884e-09	3.383934e-08	9.159900e-05	5.096493e-09	8.741542e-05	9.151333e-05	9.151333e-05	9.999110e-01	9.999110e-01	8.861490e-05	8.995678e-05	1.328000e-10	1.000000e+00	
21	1.428000e-10	-7.185996e-09	-3.374934e-08	9.199227e-05	-4.802559e-09	8.752086e-05	9.194271e-05	9.194271e-05	9.999109e-01	9.999109e-01	8.886858e-05	9.032758e-05	1.428000e-10	1.000000e+00	
22	1.528000e-10	7.430748e-09	3.389289e-08	9.234229e-05	4.804121e-09	8.758028e-05	9.224841e-05	9.224841e-05	9.999110e-01	9.999110e-01	8.905157e-05	9.059456e-05	1.528000e-10	1.000000e+00	
23	1.628000e-10	-7.248227e-09	-3.384478e-08	9.253052e-05	-4.594661e-09	8.763942e-05	9.247199e-05	9.247198e-05	9.999109e-01	9.999109e-01	8.918319e-05	9.078686e-05	1.628000e-10	1.000000e+00	
24	1.728000e-10	7.373170e-09	3.393250e-08	9.272749e-05	4.542227e-09	8.766585e-05	9.262986e-05	9.262985e-05	9.999110e-01	9.999110e-01	8.927813e-05	9.092543e-05	1.728000e-10	1.000000e+00	
25	1.828000e-10	-7.270706e-09	-3.390112e-08	9.281015e-05	-4.378804e-09	8.770088e-05	9.274651e-05	9.274650e-05	9.999109e-01	9.999109e-01	8.934640e-05	9.102515e-05	1.828000e-10	1.000000e+00	
26	1.928000e-10	7.332426e-09	3.395473e-08	9.292697e-05	4.300513e-09	8.771031e-05	9.282782e-05	9.282781e-05	9.999110e-01	9.999110e-01	8.939567e-05	9.109708e-05	1.928000e-10	1.000000e+00	
27	2.000000e-10	-7.264411e-09	-3.392739e-08	9.294057e-05	-4.119437e-09	8.772933e-05	9.287390e-05	9.287390e-05	9.999109e-01	9.999109e-01	8.942218e-05	9.113581e-05	2.000000e-10	1.000000e+00	
28	2.010000e-10	-7.648495e-09	-1.033367e-08	9.143407e-05	-3.841711e-09	-3.212925e-04	9.075123e-05	9.075123e-05	9.999107e-01	9.999107e-01	2.973249e-05	8.230896e-05	2.010000e-10	1.000000e+00	
29	2.030000e-10	-4.490379e-08	-5.760578e-08	8.078150e-05	-2.133449e-08	-1.159080e-03	7.707925e-05	7.707923e-05	9.999092e-01	9.999092e-01	-1.816161e-04	3.755337e-05	2.030000e-10	1.000000e+00	
30	2.070000e-10	-1.806325e-07	-1.908706e-07	-1.553280e-05	-8.929693e-08	-1.821012e-03	-3.132958e-05	-3.132968e-05	9.999000e-01	9.999000e-01	-7.151768e-04	-1.849482e-04	2.070000e-10	1.000000e+00	
31	2.150000e-10	-2.361364e-07	-1.284785e-07	-4.051157e-04	-1.186264e-07	-1.462319e-03	-4.293789e-04	-4.293791e-04	9.998852e-01	9.998852e-01	-1.104924e-03	-6.591073e-04	2.150000e-10	1.000000e+00	
32	2.250000e-10	8.425873e-08	1.865706e-07	-6.360935e-04	4.068414e-08	7.983261e-04	-6.318135e-04	-6.318135e-04	9.999080e-01	9.999080e-01	-2.701921e-04	-5.924005e-04	2.250000e-10	1.000000e+00	
33	2.350000e-10	8.981226e-07	7.581969e-07	4.536591e-04	4.454166e-07	9.608556e-03	5.374759e-04	5.374764e-04	9.999847e-01	9.999847e-01	3.810237e-03	1.346036e-03	2.350000e-10	1.000000e+00	
34	2.450000e-10	2.943494e-06	2.294903e-06	4.920108e-03	1.462599e-06	3.150229e-02	5.201847e-03	5.201849e-03	1.000176e+00	1.000176e+00	1.551793e-02	7.907153e-03	2.450000e-10	1.000000e+00	
35	2.550000e-10	6.772552e-06	4.765025e-06	1.647663e-02	3.371418e-06	7.471475e-02	1.714805e-02	1.714806e-02	1.000548e+00	1.000548e+00	4.072243e-02	2.356104e-02	2.550000e-10	1.000000e+00	
36	2.650000e-10	1.373895e-05	9.460781e-06	4.135699e-02	6.840704e-06	1.595099e-01	4.275863e-02	4.275864e-02	1.001220e+00	1.001220e+00	9.103224e-02	5.603344e-02	2.650000e-10	1.000000e+00	
37	2.750000e-10	2.448713e-05	1.539258e-05	8.926711e-02	1.220487e-05	2.999005e-01	9.192964e-02	9.192966e-02	1.002189e+00	1.002189e+00	1.803653e-01	1.166841e-01	2.750000e-10	1.000000e+00	
38	2.850000e-10	3.368225e-05	1.121911e-05	1.686882e-01	1.682175e-05	4.717901e-01	1.730016e-01	1.730017e-01	1.001770e+00	1.001770e+00	3.065801e-01	2.117309e-01	2.850000e-10	1.000000e+00	
39	2.950000e-10	2.193523e-05	-6.718560e-05	2.774999e-01	1.105945e-05	6.440463e-01	2.838491e-01	2.838492e-01	9.876434e-01	9.876434e-01	4.518327e-01	3.345109e-01	2.950000e-10	1.000000e+00	
40	3.050000e-10	-4.439295e-05	-3.939777e-04	3.995882e-01	-2.187414e-05	7.760599e-01	4.090151e-01	4.090151e-01	9.125029e-01	9.125029e-01	5.898174e-01	4.666678e-01	3.050000e-10	1.000000e+00	
41	3.150000e-10	-2.961563e-04	-1.488338e-03	5.115110e-01	-1.468291e-04	8.510829e-01	5.242736e-01	5.242736e-01	6.368284e-01	6.368284e-01	6.960522e-01	5.841635e-01	3.150000e-10	1.000000e+00	
42	3.250000e-10	-4.041590e-04	-1.906243e-03	5.995102e-01	-2.026269e-04	8.938193e-01	6.184914e-01	6.184914e-01	1.903295e-01	1.903295e-01	7.692117e-01	6.746218e-01	3.250000e-10	1.000000e+00	
43	3.260000e-10	-3.287827e-04	-1.589801e-03	6.102504e-01	-1.666532e-04	8.972950e-01	6.275115e-01	6.275115e-01	1.518337e-01	1.518337e-01	7.750853e-01	6.822437e-01	3.260000e-10	1.000000e+00	
44	3.280000e-10	-1.588975e-04	-7.384840e-04	6.332213e-01	-8.247948e-05	9.040153e-01	6.465997e-01	6.465998e-01	9.689932e-02	9.689932e-02	7.866166e-01	6.975063e-01	3.280000e-10	1.000000e+00	
45	3.320000e-10	-7.967885e-05	-2.387571e-04	6.771100e-01	-3.819995e-05	9.152989e-01	6.861615e-01	6.861615e-01	5.235950e-02	5.235950e-02	8.085044e-01	7.281412e-01	3.320000e-10	1.000000e+00	
46	3.400000e-10	-7.557192e-05	-1.468596e-04	7.471919e-01	-3.940559e-05	9.328922e-01	7.540842e-01	7.540843e-01	2.061170e-02	2.061170e-02	8.475812e-01	7.846847e-01	3.400000e-10	1.000000e+00	
47	3.483870e-10	-7.413198e-06	-1.083845e-05	8.046538e-01	-2.638255e-06	9.479744e-01	8.095042e-01	8.095042e-01	8.270213e-03	8.270213e-03	8.814482e-01	8.328875e-01	3.483870e-10	1.000000e+00	
48	3.583870e-10	-1.968365e-05	-3.741872e-05	8.566357e-01	-1.080743e-05	9.619066e-01	8.603208e-01	8.603208e-01	3.816159e-03	3.816159e-03	9.127934e-01	8.770597e-01	3.583870e-10	1.000000e+00	
49	3.683870e-10	8.178230e-06	1.700804e-05	8.949731e-01	4.857715e-06	9.721650e-01	8.975125e-01	8.975125e-01	2.003341e-03	2.003341e-03	9.360726e-01	9.098799e-01	3.683870e-10	1.000000e+00	
50	3.783870e-10	-1.187864e-05	-2.356245e-05	9.230216e-01	-6.564275e-06	9.796664e-01	9.250021e-01	9.250021e-01	1.363832e-03	1.363832e-03	9.532029e-01	9.339701e-01	3.783870e-10	1.000000e+00	
51	3.883870e-10	8.742764e-06	1.783796e-05	9.437006e-01	4.852758e-06	9.851431e-01	9.450605e-01	9.450605e-01	8.761502e-04	8.761502e-04	9.657532e-01	9.516829e-01	3.883870e-10	1.000000e+00	
52	3.983870e-10	-9.773468e-06	-1.965625e-05	9.587698e-01	-5.241169e-06	9.891290e-01	9.598370e-01	9.598370e-01	6.728314e-04	6.728314e-04	9.749467e-01	9.646382e-01	3.983870e-10	1.000000e+00	
53	4.083870e-10	8.453686e-06	1.713695e-05	9.698682e-01	4.459286e-06	9.920469e-01	9.705940e-01	9.705940e-01	4.729984e-04	4.729984e-04	9.816677e-01	9.741358e-01	4.083870e-10	1.000000e+00	
54	4.183870e-10	-8.858797e-06	-1.780856e-05	9.779324e-01	-4.548557e-06	9.941663e-01	9.785068e-01	9.785068e-01	3.783579e-04	3.783579e-04	9.865846e-01	9.810725e-01	4.183870e-10	1.000000e+00	
55	4.283870e-10	8.232474e-06	1.651665e-05	9.838733e-01	4.126302e-06	9.957212e-01	9.842590e-01	9.842590e-01	2.881350e-04	2.881350e-04	9.901755e-01	9.861511e-01	4.283870e-10	1.000000e+00	
56	4.383870e-10	-8.406044e-06	-1.675440e-05	9.881785e-01	-4.109512e-06	9.968486e-01	9.884882e-01	9.884882e-01	2.356515e-04	2.356515e-04	9.928010e-01	9.898575e-01	4.383870e-10	1.000000e+00	
57	4.483870e-10	8.093865e-06	1.602150e-05	9.913551e-01	3.853284e-06	9.976782e-01	9.915590e-01	9.915590e-01	1.950315e-04	1.950315e-04	9.947176e-01	9.925694e-01	4.483870e-10	1.000000e+00	
58	4.583870e-10	-8.158573e-06	-1.605583e-05	9.936495e-01	-3.789520e-06	9.982781e-01	9.938172e-01	9.938172e-01	1.627014e-04	1.627014e-04	9.961186e-01	9.945476e-01	4.583870e-10	1.000000e+00	
59	4.683870e-10	8.002694e-06	1.560185e-05	9.953478e-01	3.618420e-06	9.987210e-01	9.954549e-01	9.954549e-01	1.465118e-04	1.465118e-04	9.971409e-01	9.959946e-01	4.683870e-10	1.000000e+00	
60	4.783870e-10	-8.010975e-06	-1.553229e-05	9.965688e-01	-3.532628e-06	9.990400e-01	9.966602e-01	9.966602e-01	1.247535e-04	1.247535e-04	9.978882e-01	9.970498e-01	4.783870e-10	1.000000e+00	
61	4.883870e-10	7.934504e-06	1.522127e-05	9.974775e-01	3.407119e-06	9.992766e-01	9.975331e-01	9.975332e-01	1.207989e-04	1.207989e-04	9.984333e-01	9.978217e-01	4.883870e-10	1.000000e+00	
62	4.983870e-10	-7.912155e-06	-1.509684e-05	9.981259e-01	-3.311451e-06	9.994462e-01	9.981763e-01	9.981763e-01	1.048892e-04	1.048892e-04	9.988318e-01	9.983843e-01	4.983870e-10	1.000000e+00	
63	5.083870e-10	7.876314e-06	1.486032e-05	9.986130e-01	3.211499e-06	9.995727e-01	9.986415e-01	9.986415e-01	1.070329e-04	1.070329e-04	9.991225e-01	9.987959e-01	5.083870e-10	1.000000e+00	
64	5.183870e-10	-7.836999e-06	-1.470688e-05	9.989563e-01	-3.112312e-06	9.996628e-01	9.989848e-01	9.989848e-01	9.448646e-05	9.448646e-05	9.993350e-01	9.990959e-01	5.183870e-10	1.000000e+00	
65	5.283870e-10	7.822033e-06	1.450998e-05	9.992183e-01	3.027614e-06	9.997305e-01	9.992325e-01	9.992325e-01	9.960229e-05	9.960229e-05	9.994899e-01	9.993154e-01	5.283870e-10	1.000000e+00	
66	5.383870e-10	-7.773306e-06	-1.434171e-05	9.993992e-01	-2.928348e-06	9.997783e-01	9.994157e-01	9.994157e-01	8.905944e-05	8.905944e-05	9.996032e-01	9.994753e-01	5.383870e-10	1.000000e+00	
67	5.483870e-10	7.769168e-06	1.416664e-05	9.995409e-01	2.853566e-06	9.998146e-01	9.995476e-01	9.995476e-01	9.555638e-05	9.555638e-05	9.996858e-01	9.995923e-01	5.483870e-10	1.000000e+00	
68	5.583870e-10	-7.715328e-06	-1.399153e-05	9.996354e-01	-2.756098e-06	9.998399e-01	9.996455e-01	9.996455e-01	8.625207e-05	8.625207e-05	9.997462e-01	9.996776e-01	5.583870e-10	1.000000e+00	
69	5.683870e-10	7.716956e-06	1.382931e-05	9.997128e-01	2.688443e-06	9.998594e-01	9.997156e-01	9.997156e-01	9.332877e-05	9.332877e-05	9.997902e-01	9.997400e-01	5.683870e-10	1.000000e+00	
70	5.783870e-10	-7.660502e-06	-1.365194e-05	9.997614e-01	-2.593786e-06	9.998728e-01	9.997679e-01	9.997679e-01	8.482184e-05	8.482184e-05	9.998225e-01	9.997854e-01	5.783870e-10	1.000000e+00	
71	5.883870e-10	7.665391e-06	1.349807e-05	9.998044e-01	2.531772e-06	9.998833e-01	9.998052e-01	9.998052e-01	9.208311e-05	9.208311e-05	9.998459e-01	9.998187e-01	5.883870e-10	1.000000e+00	
72	5.983870e-10	-7.607802e-06	-1.332113e-05	9.998286e-01	-2.440446e-06	9.998903e-01	9.998332e-01	9.998332e-01	8.411283e-05	8.411283e-05	9.998631e-01	9.998429e-01	5.983870e-10	1.000000e+00	
73	6.083870e-10	7.614741e-06	1.317341e-05	9.998532e-01	2.383253e-06	9.998960e-01	9.998530e-01	9.998530e-01	9.137089e-05	9.137089e-05	9.998756e-01	9.998607e-01	6.083870e-10	1.000000e+00	
74	6.183870e-10	-7.556906e-06	-1.299845e-05	9.998645e-01	-2.295495e-06	9.998997e-01	9.998680e-01	9.998680e-01	8.377917e-05	8.377917e-05	9.998848e-01	9.998736e-01	6.183870e-10	1.000000e+00	
75	6.283870e-10	7.565331e-06	1.285583e-05	9.998792e-01	2.242637e-06	9.999028e-01	9.998784e-01	9.998784e-01	9.095058e-05	9.095058e-05	9.998914e-01	9.998830e-01	6.283870e-10	1.000000e+00	
76	6.383870e-10	-7.507787e-06	-1.268379e-05	9.998836e-01	-2.158515e-06	9.999047e-01	9.998865e-01	9.998865e-01	8.363894e-05	8.363894e-05	9.998963e-01	9.998899e-01	6.383870e-10	1.000000e+00	
77	6.483870e-10	7.517447e-06	1.254576e-05	9.998930e-01	2.109669e-06	9.999064e-01	9.998920e-01	9.998920e-01	9.069155e-05	9.069155e-05	9.998999e-01	9.998949e-01	6.483870e-10	1.000000e+00	
78	6.583870e-10	-7.460519e-06	-1.237716e-05	9.998939e-01	-2.029155e-06	9.999074e-01	9.998964e-01	9.998964e-01	8.359688e-05	8.359688e-05	9.999025e-01	9.998986e-01	6.583870e-10	1.000000e+00	
79	6.683870e-10	7.471310e-06	1.224349e-05	9.999004e-01	1.984080e-06	9.999083e-01	9.998993e-01	9.998993e-01	9.052274e-05	9.052274e-05	9.999044e-01	9.999013e-01	6.683870e-10	1.000000e+00	
80	6.783870e-10	-7.415188e-06	-1.207864e-05	9.998994e-01	-1.907084e-06	9.999088e-01	9.999016e-01	9.999016e-01	8.360350e-05	8.360350e-05	9.999058e-01	9.999032e-01	6.783870e-10	1.000000e+00	
81	6.883870e-10	7.427065e-06	1.194919e-05	9.999043e-01	1.865578e-06	9.999093e-01	9.999032e-01	9.999032e-01	9.040520e-05	9.040520e-05	9.999068e-01	9.999047e-01	6.883870e-10	1.000000e+00	
82	6.983870e-10	-7.371860e-06	-1.178824e-05	9.999023e-01	-1.791977e-06	9.999096e-01	9.999044e-01	9.999044e-01	8.363328e-05	8.363328e-05	9.999075e-01	9.999057e-01	6.983870e-10	1.000000e+00	
83	7.083870e-10	7.384802e-06	1.166293e-05	9.999063e-01	1.753856e-06	9.999099e-01	9.999052e-01	9.999052e-01	9.031741e-05	9.031741e-05	9.999080e-01	9.999065e-01	7.083870e-10	1.000000e+00	
84	7.183870e-10	-7.330568e-06	-1.150593e-05	9.999039e-01	-1.683511e-06	9.999100e-01	9.999059e-01	9.999059e-01	8.367331e-05	8.367331e-05	9.999084e-01	9.999070e-01	7.183870e-10	1.000000e+00	
85	7.283870e-10	7.344557e-06	1.138468e-05	9.999074e-01	1.648600e-06	9.999101e-01	9.999063e-01	9.999063e-01	9.024731e-05	9.024731e-05	9.999087e-01	9.999075e-01	7.283870e-10	1.000000e+00	
86	7.383870e-10	-7.291315e-06	-1.123163e-05	9.999047e-01	-1.581359e-06	9.999102e-01	9.999067e-01	9.999067e-01	8.371720e-05	8.371720e-05	9.999089e-01	9.999077e-01	7.383870e-10	1.000000e+00	
87	7.483870e-10	7.306329e-06	1.111436e-05	9.999080e-01	1.549493e-06	9.999103e-01	9.999069e-01	9.999069e-01	9.018807e-05	9.018807e-05	9.999091e-01	9.999080e-01	7.483870e-10	1.000000e+00	
88	7.583870e-10	-7.254076e-06	-1.096520e-05	9.999052e-01	-1.485202e-06	9.999103e-01	9.999071e-01	9.999071e-01	8.376188e-05	8.376188e-05	9.999092e-01	9.999081e-01	7.583870e-10	1.000000e+00	
89	7.683870e-10	7.270089e-06	1.085183e-05	9.999083e-01	1.456217e-06	9.999104e-01	9.999072e-01	9.999072e-01	9.013572e-05	9.013572e-05	9.999093e-01	9.999082e-01	7.683870e-10	1.000000e+00	
90	7.783870e-10	-7.218808e-06	-1.070650e-05	9.999055e-01	-1.394723e-06	9.999104e-01	9.999074e-01	9.999074e-01	8.380599e-05	8.380599e-05	9.999093e-01	9.999083e-01	7.783870e-10	1.000000e+00	
91	7.883870e-10	7.235789e-06	1.059693e-05	9.999084e-01	1.368464e-06	9.999104e-01	9.999074e-01	9.999074e-01	9.008794e-05	9.008794e-05	9.999094e-01	9.999084e-01	7.883870e-10	1.000000e+00	
92	7.983870e-10	-7.185453e-06	-1.045533e-05	9.999056e-01	-1.309616e-06	9.999104e-01	9.999075e-01	9.999075e-01	8.384901e-05	8.384901e-05	9.999094e-01	9.999084e-01	7.983870e-10	1.000000e+00	
93	8.083870e-10	7.203367e-06	1.034945e-05	9.999085e-01	1.285932e-06	9.999104e-01	9.999075e-01	9.999075e-01	9.004331e-05	9.004331e-05	9.999094e-01	9.999085e-01	8.083870e-10	1.000000e+00	
94	8.183870e-10	-7.153942e-06	-1.021149e-05	9.999057e-01	-1.229584e-06	9.999104e-01	9.999076e-01	9.999076e-01	8.389080e-05	8.389080e-05	9.999095e-01	9.999085e-01	8.183870e-10	1.000000e+00	
95	8.283870e-10	7.172751e-06	1.010921e-05	9.999085e-01	1.208330e-06	9.999104e-01	9.999075e-01	9.999075e-01	9.000094e-05	9.000094e-05	9.999095e-01	9.999085e-01	8.283870e-10	1.000000e+00	
96	8.383870e-10	-7.124200e-06	-9.974781e-06	9.999058e-01	-1.154341e-06	9.999104e-01	9.999076e-01	9.999076e-01	8.393139e-05	8.393139e-05	9.999095e-01	9.999085e-01	8.383870e-10	1.000000e+00	
97	8.483870e-10	7.143865e-06	9.875980e-06	9.999085e-01	1.135378e-06	9.999104e-01	9.999076e-01	9.999076e-01	8.996028e-05	8.996028e-05	9.999095e-01	9.999085e-01	8.483870e-10	1.000000e+00	
98	8.583870e-10	-7.096150e-06	-9.744980e-06	9.999058e-01	-1.083614e-06	9.999104e-01	9.999076e-01	9.999076e-01	8.397089e-05	8.397089e-05	9.999095e-01	9.999085e-01	8.583870e-10	1.000000e+00	
99	8.683870e-10	7.116631e-06	9.649553e-06	9.999085e-01	1.066811e-06	9.999104e-01	9.999076e-01	9.999076e-01	8.992096e-05	8.992096e-05	9.999095e-01	9.999085e-01	8.683870e-10	1.000000e+00	
100	8.783870e-10	-7.069711e-06	-9.521872e-06	9.999058e-01	-1.017143e-06	9.999104e-01	9.999076e-01	9.999076e-01	8.400940e-05	8.400940e-05	9.999095e-01	9.999085e-01	8.783870e-10	1.000000e+00	
101	8.883870e-10	7.090968e-06	9.429712e-06	9.999085e-01	1.002374e-06	9.999104e-01	9.999076e-01	9.999076e-01	8.988272e-05	8.988272e-05	9.999095e-01	9.999085e-01	8.883870e-10	1.000000e+00	
102	8.983870e-10	-7.044803e-06	-9.305243e-06	9.999058e-01	-9.546802e-07	9.999104e-01	9.999076e-01	9.999076e-01	8.404703e-05	8.404703e-05	9.999095e-01	9.999085e-01	8.983870e-10	1.000000e+00	
103	9.083870e-10	7.066797e-06	9.216242e-06	9.999085e-01	9.418265e-07	9.999104e-01	9.999076e-01	9.999076e-01	8.984540e-05	8.984540e-05	9.999095e-01	9.999086e-01	9.083870e-10	1.000000e+00	
104	9.183870e-10	-7.021349e-06	-9.094880e-06	9.999059e-01	-8.959902e-07	9.999104e-01	9.999076e-01	9.999076e-01	8.408387e-05	8.408387e-05	9.999095e-01	9.999086e-01	9.183870e-10	1.000000e+00	
105	9.283870e-10	7.044040e-06	9.008934e-06	9.999085e-01	8.849388e-07	9.999104e-01	9.999076e-01	9.999076e-01	8.980888e-05	8.980888e-05	9.999095e-01	9.999086e-01	9.283870e-10	1.000000e+00	
106	9.383870e-10	-6.999271e-06	-8.890575e-06	9.999059e-01	-8.408507e-07	9.999104e-01	9.999076e-01	9.999076e-01	8.412000e-05	8.412000e-05	9.999095e-01	9.999086e-01	9.383870e-10	1.000000e+00	
107	9.483870e-10	7.022622e-06	8.807582e-06	9.999084e-01	8.314948e-07	9.999104e-01	9.999076e-01	9.999076e-01	8.977306e-05	8.977306e-05	9.999095e-01	9.999086e-01	9.483870e-10	1.000000e+00	
108	9.583870e-10	-6.978495e-06	-8.692126e-06	9.999059e-01	-7.890512e-07	9.999104e-01	9.999076e-01	9.999076e-01	8.415547e-05	8.415547e-05	9.999095e-01	9.999086e-01	9.583870e-10	1.000000e+00	
109	9.683870e-10	7.002469e-06	8.611986e-06	9.999084e-01	7.812899e-07	9.999104e-01	9.999076e-01	9.999076e-01	8.973788e-05	8.973788e-05	9.999095e-01	9.999086e-01	9.683870e-10	1.000000e+00	
110	9.783870e-10	-6.958948e-06	-8.499336e-06	9.999059e-01	-7.403928e-07	9.999105e-01	9.999076e-01	9.999076e-01	8.419034e-05	8.419035e-05	9.999095e-01	9.999086e-01	9.783870e-10	1.000000e+00	
111	9.883870e-10	6.983512e-06	8.421953e-06	9.999084e-01	7.341309e-07	9.999104e-01	9.999076e-01	9.999076e-01	8.970329e-05	8.970329e-05	9.999095e-01	9.999086e-01	9.883870e-10	1.000000e+00	
112	9.983870e-10	-6.940563e-06	-8.312014e-06	9.999059e-01	-6.946877e-07	9.999105e-01	9.999076e-01	9.999076e-01	8.422465e-05	8.422465e-05	9.999095e-01	9.999086e-01	9.983870e-10	1.000000e+00	
113	1.008387e-09	6.965682e-06	8.237295e-06	9.999084e-01	6.898355e-07	9.999104e-01	9.999076e-01	9.999076e-01	8.966925e-05	8.966925e-05	9.999095e-01	9.999086e-01	1.008387e-09	1.000000e+00	
114	1.018387e-09	-6.923273e-06	-8.129975e-06	9.999060e-01	-6.517590e-07	9.999105e-01	9.999076e-01	9.999076e-01	8.425842e-05	8.425842e-05	9.999095e-01	9.999086e-01	1.018387e-09	1.000000e+00	
115	1.028387e-09	6.948916e-06	8.057830e-06	9.999084e-01	6.482316e-07	9.999104e-01	9.999076e-01	9.999076e-01	8.963574e-05	8.963574e-05	9.999095e-01	9.999086e-01	1.028387e-09	1.000000e+00	
116	1.038387e-09	-6.907015e-06	-7.953041e-06	9.999060e-01	-6.114395e-07	9.999105e-01	9.999076e-01	9.999076e-01	8.429168e-05	8.429168e-05	9.999095e-01	9.999086e-01	1.038387e-09	1.000000e+00	
117	1.048387e-09	6.933150e-06	7.883384e-06	9.999084e-01	6.091572e-07	9.999104e-01	9.999076e-01	9.999076e-01	8.960273e-05	8.960273e-05	9.999095e-01	9.999086e-01	1.048387e-09	1.000000e+00	
118	1.058387e-09	-6.891728e-06	-7.781039e-06	9.999060e-01	-5.735721e-07	9.999105e-01	9.999076e-01	9.999076e-01	8.432445e-05	8.432445e-05	9.999095e-01	9.999086e-01	1.058387e-09	1.000000e+00	
119	1.068387e-09	6.918328e-06	7.713786e-06	9.999083e-01	5.724596e-07	9.999104e-01	9.999076e-01	9.999076e-01	8.957020e-05	8.957020e-05	9.999095e-01	9.999086e-01	1.068387e-09	1.000000e+00	
120	1.078387e-09	-6.877357e-06	-7.613805e-06	9.999060e-01	-5.380085e-07	9.999105e-01	9.999076e-01	9.999076e-01	8.435674e-05	8.435674e-05	9.999095e-01	9.999086e-01	1.078387e-09	1.000000e+00	
121	1.088387e-09	6.904393e-06	7.548874e-06	9.999083e-01	5.379950e-07	9.999104e-01	9.999076e-01	9.999076e-01	8.953814e-05	8.953814e-05	9.999095e-01	9.999086e-01	1.088387e-09	1.000000e+00	
122	1.098387e-09	-6.863845e-06	-7.451177e-06	9.999060e-01	-5.046092e-07	9.999105e-01	9.999076e-01	9.999076e-01	8.438858e-05	8.438858e-05	9.999095e-01	9.999086e-01	1.098387e-09	1.000000e+00	
123	1.108387e-09	6.891292e-06	7.388492e-06	9.999083e-01	5.056280e-07	9.999104e-01	9.999076e-01	9.999076e-01	8.950653e-05	8.950653e-05	9.999095e-01	9.999086e-01	1.108387e-09	1.000000e+00	
124	1.118387e-09	-6.851142e-06	-7.293002e-06	9.999060e-01	-4.732427e-07	9.999105e-01	9.999076e-01	9.999076e-01	8.441998e-05	8.441998e-05	9.999095e-01	9.999086e-01	1.118387e-09	1.000000e+00	
125	1.128387e-09	6.878975e-06	7.232488e-06	9.999083e-01	4.752311e-07	9.999104e-01	9.999076e-01	9.999076e-01	8.947535e-05	8.947535e-05	9.999095e-01	9.999086e-01	1.128387e-09	1.000000e+00	
126	1.138387e-09	-6.839199e-06	-7.139132e-06	9.999060e-01	-4.437855e-07	9.999105e-01	9.999076e-01	9.999076e-01	8.445094e-05	8.445094e-05	9.999095e-01	9.999086e-01	1.138387e-09	1.000000e+00	
127	1.148387e-09	6.867394e-06	7.080716e-06	9.999083e-01	4.466844e-07	9.999104e-01	9.999076e-01	9.999076e-01	8.944461e-05	8.944461e-05	9.999095e-01	9.999086e-01	1.148387e-09	1.000000e+00	
128	1.158387e-09	-6.827969e-06	-6.989424e-06	9.999061e-01	-4.161211e-07	9.999105e-01	9.999076e-01	9.999076e-01	8.448147e-05	8.448147e-05	9.999095e-01	9.999086e-01	1.158387e-09	1.000000e+00	
129	1.168387e-09	6.856503e-06	6.933036e-06	9.999083e-01	4.198749e-07	9.999104e-01	9.999076e-01	9.999076e-01	8.941428e-05	8.941428e-05	9.999095e-01	9.999086e-01	1.168387e-09	1.000000e+00	
130	1.178387e-09	-6.817407e-06	-6.843739e-06	9.999061e-01	-3.901400e-07	9.999105e-01	9.999076e-01	9.999076e-01	8.451159e-05	8.451159e-05	9.999095e-01	9.999086e-01	1.178387e-09	1.000000e+00	
131	1.188387e-09	6.846260e-06	6.789314e-06	9.999083e-01	3.946964e-07	9.999104e-01	9.999076e-01	9.999076e-01	8.938437e-05	8.938437e-05	9.999095e-01	9.999086e-01	1.188387e-09	1.000000e+00	
132	1.198387e-09	-6.807472e-06	-6.701946e-06	9.999061e-01	-3.657392e-07	9.999105e-01	9.999076e-01	9.999076e-01	8.454130e-05	8.454130e-05	9.999095e-01	9.999086e-01	1.198387e-09	1.000000e+00	
133	1.208387e-09	6.836623e-06	6.649419e-06	9.999082e-01	3.710491e-07	9.999104e-01	9.999076e-01	9.999076e-01	8.935486e-05	8.935486e-05	9.999095e-01	9.999086e-01	1.208387e-09	1.000000e+00	
134	1.218387e-09	-6.798124e-06	-6.563918e-06	9.999061e-01	-3.428219e-07	9.999105e-01	9.999076e-01	9.999076e-01	8.457061e-05	8.457061e-05	9.999095e-01	9.999086e-01	1.218387e-09	1.000000e+00	
135	1.228387e-09	6.827555e-06	6.513226e-06	9.999082e-01	3.488388e-07	9.999104e-01	9.999076e-01	9.999076e-01	8.932575e-05	8.932575e-05	9.999095e-01	9.999086e-01	1.228387e-09	1.000000e+00	
136	1.238387e-09	-6.789326e-06	-6.429531e-06	9.999061e-01	-3.212968e-07	9.999105e-01	9.999076e-01	9.999076e-01	8.459953e-05	8.459953e-05	9.999095e-01	9.999086e-01	1.238387e-09	1.000000e+00	
137	1.248387e-09	6.819018e-06	6.380614e-06	9.999082e-01	3.279774e-07	9.999104e-01	9.999076e-01	9.999076e-01	8.929702e-05	8.929702e-05	9.999095e-01	9.999086e-01	1.248387e-09	1.000000e+00	
138	1.258387e-09	-6.781042e-06	-6.298667e-06	9.999061e-01	-3.010783e-07	9.999105e-01	9.999076e-01	9.999076e-01	8.462807e-05	8.462807e-05	9.999095e-01	9.999086e-01	1.258387e-09	1.000000e+00	
139	1.268387e-09	6.810977e-06	6.251469e-06	9.999082e-01	3.083817e-07	9.999104e-01	9.999076e-01	9.999076e-01	8.926868e-05	8.926868e-05	9.999095e-01	9.999086e-01	1.268387e-09	1.000000e+00	
140	1.278387e-09	-6.773237e-06	-6.171212e-06	9.999061e-01	-2.820858e-07	9.999105e-01	9.999076e-01	9.999076e-01	8.465622e-05	8.465622e-05	9.999095e-01	9.999086e-01	1.278387e-09	1.000000e+00	
141	1.288387e-09	6.803401e-06	6.125678e-06	9.999082e-01	2.899734e-07	9.999104e-01	9.999076e-01	9.999076e-01	8.924072e-05	8.924072e-05	9.999095e-01	9.999086e-01	1.288387e-09	1.000000e+00	
142	1.298387e-09	-6.765881e-06	-6.047057e-06	9.999061e-01	-2.642435e-07	9.999105e-01	9.999076e-01	9.999076e-01	8.468400e-05	8.468400e-05	9.999095e-01	9.999086e-01	1.298387e-09	1.000000e+00	
143	1.308387e-09	6.796257e-06	6.003133e-06	9.999082e-01	2.726793e-07	9.999104e-01	9.999076e-01	9.999076e-01	8.921313e-05	8.921313e-05	9.999095e-01	9.999086e-01	1.308387e-09	1.000000e+00	
144	1.318387e-09	-6.758942e-06	-5.926096e-06	9.999062e-01	-2.474803e-07	9.999105e-01	9.999076e-01	9.999076e-01	8.471141e-05	8.471141e-05	9.999095e-01	9.999086e-01	1.318387e-09	1.000000e+00	
145	1.328387e-09	6.789516e-06	5.883731e-06	9.999082e-01	2.564302e-07	9.999104e-01	9.999076e-01	9.999076e-01	8.918590e-05	8.918590e-05	9.999095e-01	9.999086e-01	1.328387e-09	1.000000e+00	
146	1.338387e-09	-6.752392e-06	-5.808228e-06	9.999062e-01	-2.317292e-07	9.999105e-01	9.999076e-01	9.999076e-01	8.473846e-05	8.473846e-05	9.999095e-01	9.999086e-01	1.338387e-09	1.000000e+00	
147	1.348387e-09	6.783151e-06	5.767372e-06	9.999082e-01	2.411613e-07	9.999104e-01	9.999076e-01	9.999076e-01	8.915903e-05	8.915903e-05	9.999095e-01	9.999086e-01	1.348387e-09	1.000000e+00	
148	1.358387e-09	-6.746204e-06	-5.693355e-06	9.999062e-01	-2.169273e-07	9.999105e-01	9.999076e-01	9.999076e-01	8.476515e-05	8.476515e-05	9.999095e-01	9.999086e-01	1.358387e-09	1.000000e+00	
149	1.368387e-09	6.777134e-06	5.653960e-06	9.999081e-01	2.268115e-07	9.999104e-01	9.999076e-01	9.999076e-01	8.913251e-05	8.913251e-05	9.999095e-01	9.999086e-01	1.368387e-09	1.000000e+00	
150	1.378387e-09	-6.740353e-06	-5.581381e-06	9.999062e-01	-2.030154e-07	9.999105e-01	9.999076e-01	9.999076e-01	8.479149e-05	8.479149e-05	9.999095e-01	9.999086e-01	1.378387e-09	1.000000e+00	
151	1.388387e-09	6.771441e-06	5.543402e-06	9.999081e-01	2.133237e-07	9.999104e-01	9.999076e-01	9.999076e-01	8.910635e-05	8.910635e-05	9.999095e-01	9.999086e-01	1.388387e-09	1.000000e+00	
152	1.398387e-09	-6.734813e-06	-5.472217e-06	9.999062e-01	-1.899381e-07	9.999105e-01	9.999076e-01	9.999076e-01	8.481749e-05	8.481749e-05	9.999095e-01	9.999086e-01	1.398387e-09	1.000000e+00	
153	1.408387e-09	6.766048e-06	5.435609e-06	9.999081e-01	2.006439e-07	9.999104e-01	9.999076e-01	9.999076e-01	8.908052e-05	8.908052e-05	9.999095e-01	9.999086e-01	1.408387e-09	1.000000e+00	
154	1.418387e-09	-6.729561e-06	-5.365774e-06	9.999062e-01	-1.776432e-07	9.999105e-01	9.999076e-01	9.999076e-01	8.484314e-05	8.484314e-05	9.999095e-01	9.999086e-01	1.418387e-09	1.000000e+00	
155	1.428387e-09	6.760933e-06	5.330495e-06	9.999081e-01	1.887215e-07	9.999104e-01	9.999076e-01	9.999076e-01	8.905504e-05	8.905504e-05	9.999095e-01	9.999086e-01	1.428387e-09	1.000000e+00	
156	1.438387e-09	-6.724577e-06	-5.261968e-06	9.999062e-01	-1.660816e-07	9.999105e-01	9.999076e-01	9.999076e-01	8.486846e-05	8.486846e-05	9.999095e-01	9.999086e-01	1.438387e-09	1.000000e+00	
157	1.448387e-09	6.756074e-06	5.227977e-06	9.999081e-01	1.775091e-07	9.999104e-01	9.999076e-01	9.999076e-01	8.902989e-05	8.902989e-05	9.999095e-01	9.999086e-01	1.448387e-09	1.000000e+00	
158	1.458387e-09	-6.719839e-06	-5.160718e-06	9.999062e-01	-1.552073e-07	9.999105e-01	9.999076e-01	9.999076e-01	8.489345e-05	8.489345e-05	9.999095e-01	9.999086e-01	1.458387e-09	1.000000e+00	
159	1.468387e-09	6.751452e-06	5.127975e-06	9.999081e-01	1.669621e-07	9.999104e-01	9.999076e-01	9.999076e-01	8.900507e-05	8.900507e-05	9.999095e-01	9.999086e-01	1.468387e-09	1.000000e+00	
160	1.478387e-09	-6.715328e-06	-5.061945e-06	9.999063e-01	-1.449771e-07	9.999105e-01	9.999076e-01	9.999076e-01	8.491811e-05	8.491811e-05	9.999095e-01	9.999086e-01	1.478387e-09	1.000000e+00	
161	1.488387e-09	6.747047e-06	5.030412e-06	9.999081e-01	1.570385e-07	9.999104e-01	9.999076e-01	9.999076e-01	8.898057e-05	8.898057e-05	9.999095e-01	9.999086e-01	1.488387e-09	1.000000e+00	
162	1.498387e-09	-6.711025e-06	-4.965573e-06	9.999063e-01	-1.353504e-07	9.999105e-01	9.999076e-01	9.999076e-01	8.494245e-05	8.494245e-05	9.999095e-01	9.999086e-01	1.498387e-09	1.000000e+00	
163	1.508387e-09	6.742841e-06	4.935213e-06	9.999081e-01	1.476991e-07	9.999104e-01	9.999076e-01	9.999076e-01	8.895639e-05	8.895639e-05	9.999095e-01	9.999086e-01	1.508387e-09	1.000000e+00	
164	1.518387e-09	-6.706913e-06	-4.871530e-06	9.999063e-01	-1.262890e-07	9.999105e-01	9.999076e-01	9.999076e-01	8.496647e-05	8.496647e-05	9.999095e-01	9.999086e-01	1.518387e-09	1.000000e+00	
165	1.528387e-09	6.738818e-06	4.842307e-06	9.999081e-01	1.389069e-07	9.999104e-01	9.999076e-01	9.999076e-01	8.893253e-05	8.893253e-05	9.999095e-01	9.999086e-01	1.528387e-09	1.000000e+00	
166	1.538387e-09	-6.702975e-06	-4.779744e-06	9.999063e-01	-1.177573e-07	9.999105e-01	9.999076e-01	9.999076e-01	8.499017e-05	8.499017e-05	9.999095e-01	9.999086e-01	1.538387e-09	1.000000e+00	
167	1.548387e-09	6.734962e-06	4.751625e-06	9.999080e-01	1.306272e-07	9.999104e-01	9.999076e-01	9.999076e-01	8.890898e-05	8.890898e-05	9.999095e-01	9.999086e-01	1.548387e-09	1.000000e+00	
168	1.558387e-09	-6.699196e-06	-4.690149e-06	9.999063e-01	-1.097216e-07	9.999105e-01	9.999076e-01	9.999076e-01	8.501357e-05	8.501357e-05	9.999095e-01	9.999086e-01	1.558387e-09	1.000000e+00	
169	1.568387e-09	6.731257e-06	4.663100e-06	9.999080e-01	1.228275e-07	9.999104e-01	9.999076e-01	9.999076e-01	8.888574e-05	8.888574e-05	9.999095e-01	9.999086e-01	1.568387e-09	1.000000e+00	
170	1.578387e-09	-6.695561e-06	-4.602679e-06	9.999063e-01	-1.021504e-07	9.999105e-01	9.999076e-01	9.999076e-01	8.503666e-05	8.503666e-05	9.999095e-01	9.999086e-01	1.578387e-09	1.000000e+00	
171	1.588387e-09	6.727689e-06	4.576668e-06	9.999080e-01	1.154774e-07	9.999104e-01	9.999076e-01	9.999076e-01	8.886280e-05	8.886280e-05	9.999095e-01	9.999086e-01	1.588387e-09	1.000000e+00	
172	1.598387e-09	-6.692057e-06	-4.517269e-06	9.999063e-01	-9.501412e-08	9.999105e-01	9.999076e-01	9.999076e-01	8.505945e-05	8.505945e-05	9.999095e-01	9.999086e-01	1.598387e-09	1.000000e+00	
173	1.608387e-09	6.724245e-06	4.492266e-06	9.999080e-01	1.085480e-07	9.999104e-01	9.999076e-01	9.999076e-01	8.884016e-05	8.884016e-05	9.999095e-01	9.999086e-01	1.608387e-09	1.000000e+00	
174	1.618387e-09	-6.688670e-06	-4.433860e-06	9.999063e-01	-8.828506e-08	9.999105e-01	9.999076e-01	9.999076e-01	8.508194e-05	8.508194e-05	9.999095e-01	9.999086e-01	1.618387e-09	1.000000e+00	
175	1.628387e-09	6.720911e-06	4.409835e-06	9.999080e-01	1.020127e-07	9.999104e-01	9.999076e-01	9.999076e-01	8.881781e-05	8.881781e-05	9.999095e-01	9.999086e-01	1.628387e-09	1.000000e+00	
176	1.638387e-09	-6.685387e-06	-4.352393e-06	9.999063e-01	-8.193717e-08	9.999105e-01	9.999076e-01	9.999076e-01	8.510414e-05	8.510414e-05	9.999095e-01	9.999086e-01	1.638387e-09	1.000000e+00	
177	1.648387e-09	6.717676e-06	4.329317e-06	9.999080e-01	9.584614e-08	9.999104e-01	9.999076e-01	9.999076e-01	8.879576e-05	8.879576e-05	9.999095e-01	9.999086e-01	1.648387e-09	1.000000e+00	
178	1.658387e-09	-6.682197e-06	-4.272810e-06	9.999063e-01	-7.594606e-08	9.999105e-01	9.999076e-01	9.999076e-01	8.512606e-05	8.512606e-05	9.999095e-01	9.999086e-01	1.658387e-09	1.000000e+00	
179	1.668387e-09	6.714529e-06	4.250656e-06	9.999080e-01	9.002474e-08	9.999104e-01	9.999076e-01	9.999076e-01	8.877399e-05	8.877399e-05	9.999095e-01	9.999086e-01	1.668387e-09	1.000000e+00	
180	1.678387e-09	-6.679089e-06	-4.195057e-06	9.999064e-01	-7.028885e-08	9.999105e-01	9.999076e-01	9.999076e-01	8.514768e-05	8.514768e-05	9.999095e-01	9.999086e-01	1.678387e-09	1.000000e+00	
181	1.688387e-09	6.711458e-06	4.173797e-06	9.999080e-01	8.452632e-08	9.999104e-01	9.999076e-01	9.999076e-01	8.875250e-05	8.875250e-05	9.999095e-01	9.999086e-01	1.688387e-09	1.000000e+00	
182	1.698387e-09	-6.676053e-06	-4.119080e-06	9.999064e-01	-6.494407e-08	9.999105e-01	9.999076e-01	9.999076e-01	8.516903e-05	8.516903e-05	9.999095e-01	9.999086e-01	1.698387e-09	1.000000e+00	
183	1.708387e-09	6.708454e-06	4.098690e-06	9.999080e-01	7.933012e-08	9.999104e-01	9.999076e-01	9.999076e-01	8.873130e-05	8.873130e-05	9.999095e-01	9.999086e-01	1.708387e-09	1.000000e+00	
184	1.718387e-09	-6.673079e-06	-4.044829e-06	9.999064e-01	-5.989161e-08	9.999105e-01	9.999076e-01	9.999076e-01	8.519009e-05	8.519009e-05	9.999095e-01	9.999086e-01	1.718387e-09	1.000000e+00	
185	1.728387e-09	6.705507e-06	4.025283e-06	9.999080e-01	7.441667e-08	9.999104e-01	9.999076e-01	9.999076e-01	8.871037e-05	8.871037e-05	9.999095e-01	9.999086e-01	1.728387e-09	1.000000e+00	
186	1.738387e-09	-6.670157e-06	-3.972255e-06	9.999064e-01	-5.511263e-08	9.999105e-01	9.999076e-01	9.999076e-01	8.521088e-05	8.521088e-05	9.999095e-01	9.999086e-01	1.738387e-09	1.000000e+00	
187	1.748387e-09	6.702608e-06	3.953529e-06	9.999079e-01	6.976772e-08	9.999104e-01	9.999076e-01	9.999076e-01	8.868972e-05	8.868972e-05	9.999095e-01	9.999086e-01	1.748387e-09	1.000000e+00	
188	1.758387e-09	-6.667279e-06	-3.901308e-06	9.999064e-01	-5.058946e-08	9.999105e-01	9.999076e-01	9.999076e-01	8.523141e-05	8.523141e-05	9.999095e-01	9.999086e-01	1.758387e-09	1.000000e+00	
189	1.768387e-09	6.699749e-06	3.883379e-06	9.999079e-01	6.536617e-08	9.999104e-01	9.999076e-01	9.999076e-01	8.866933e-05	8.866933e-05	9.999095e-01	9.999086e-01	1.768387e-09	1.000000e+00	
190	1.778387e-09	-6.664436e-06	-3.831945e-06	9.999064e-01	-4.630556e-08	9.999105e-01	9.999076e-01	9.999076e-01	8.525166e-05	8.525166e-05	9.999095e-01	9.999086e-01	1.778387e-09	1.000000e+00	
191	1.788387e-09	6.696921e-06	3.814790e-06	9.999079e-01	6.119601e-08	9.999104e-01	9.999076e-01	9.999076e-01	8.864921e-05	8.864921e-05	9.999095e-01	9.999086e-01	1.788387e-09	1.000000e+00	
192	1.798387e-09	-6.661622e-06	-3.764119e-06	9.999064e-01	-4.224542e-08	9.999105e-01	9.999076e-01	9.999076e-01	8.527165e-05	8.527165e-05	9.999095e-01	9.999086e-01	1.798387e-09	1.000000e+00	
193	1.808387e-09	6.694118e-06	3.747717e-06	9.999079e-01	5.724224e-08	9.999104e-01	9.999076e-01	9.999076e-01	8.862935e-05	8.862935e-05	9.999095e-01	9.999086e-01	1.808387e-09	1.000000e+00	
194	1.818387e-09	-6.658828e-06	-3.697787e-06	9.999064e-01	-3.839452e-08	9.999105e-01	9.999076e-01	9.999076e-01	8.529138e-05	8.529138e-05	9.999095e-01	9.999086e-01	1.818387e-09	1.000000e+00	
195	1.828387e-09	6.691331e-06	3.682117e-06	9.999079e-01	5.349081e-08	9.999104e-01	9.999076e-01	9.999076e-01	8.860975e-05	8.860975e-05	9.999095e-01	9.999086e-01	1.828387e-09	1.000000e+00	
196	1.838387e-09	-6.656047e-06	-3.632909e-06	9.999064e-01	-3.473928e-08	9.999105e-01	9.999076e-01	9.999076e-01	8.531085e-05	8.531085e-05	9.999095e-01	9.999086e-01	1.838387e-09	1.000000e+00	
197	1.848387e-09	6.688556e-06	3.617950e-06	9.999079e-01	4.992856e-08	9.999104e-01	9.999076e-01	9.999076e-01	8.859040e-05	8.859040e-05	9.999095e-01	9.999086e-01	1.848387e-09	1.000000e+00	
198	1.858387e-09	-6.653275e-06	-3.569444e-06	9.999064e-01	-3.126697e-08	9.999105e-01	9.999076e-01	9.999076e-01	8.533007e-05	8.533007e-05	9.999095e-01	9.999086e-01	1.858387e-09	1.000000e+00	
199	1.868387e-09	6.685784e-06	3.555177e-06	9.999079e-01	4.654319e-08	9.999104e-01	9.999076e-01	9.999076e-01	8.857131e-05	8.857131e-05	9.999095e-01	9.999086e-01	1.868387e-09	1.000000e+00	
200	1.878387e-09	-6.650503e-06	-3.507353e-06	9.999064e-01	-2.796568e-08	9.999105e-01	9.999076e-01	9.999076e-01	8.534904e-05	8.534904e-05	9.999095e-01	9.999086e-01	1.878387e-09	1.000000e+00	
201	1.888387e-09	6.683011e-06	3.493758e-06	9.999079e-01	4.332317e-08	9.999104e-01	9.999076e-01	9.999076e-01	8.855247e-05	8.855247e-05	9.999095e-01	9.999086e-01	1.888387e-09	1.000000e+00	
202	1.898387e-09	-6.647727e-06	-3.446598e-06	9.999065e-01	-2.482427e-08	9.999105e-01	9.999076e-01	9.999076e-01	8.536776e-05	8.536776e-05	9.999095e-01	9.999086e-01	1.898387e-09	1.000000e+00	
203	1.908387e-09	6.680231e-06	3.433658e-06	9.999079e-01	4.025774e-08	9.999104e-01	9.999076e-01	9.999076e-01	8.853387e-05	8.853387e-05	9.999095e-01	9.999086e-01	1.908387e-09	1.000000e+00	
204	1.918387e-09	-6.644942e-06	-3.387143e-06	9.999065e-01	-2.183231e-08	9.999105e-01	9.999076e-01	9.999076e-01	8.538624e-05	8.538624e-05	9.999095e-01	9.999086e-01	1.918387e-09	1.000000e+00	
205	1.928387e-09	6.677439e-06	3.374840e-06	9.999079e-01	3.733679e-08	9.999104e-01	9.999076e-01	9.999076e-01	8.851551e-05	8.851551e-05	9.999095e-01	9.999086e-01	1.928387e-09	1.000000e+00	
206	1.938387e-09	-6.642142e-06	-3.328953e-06	9.999065e-01	-1.898005e-08	9.999105e-01	9.999076e-01	9.999076e-01	8.540447e-05	8.540447e-05	9.999095e-01	9.999086e-01	1.938387e-09	1.000000e+00	
207	1.948387e-09	6.674630e-06	3.317270e-06	9.999079e-01	3.455092e-08	9.999104e-01	9.999076e-01	9.999076e-01	8.849740e-05	8.849740e-05	9.999095e-01	9.999086e-01	1.948387e-09	1.000000e+00	
208	1.958387e-09	-6.639323e-06	-3.271994e-06	9.999065e-01	-1.625837e-08	9.999105e-01	9.999076e-01	9.999076e-01	8.542247e-05	8.542247e-05	9.999095e-01	9.999086e-01	1.958387e-09	1.000000e+00	
209	1.968387e-09	6.671800e-06	3.260914e-06	9.999079e-01	3.189130e-08	9.999104e-01	9.999076e-01	9.999076e-01	8.847952e-05	8.847952e-05	9.999095e-01	9.999086e-01	1.968387e-09	1.000000e+00	
210	1.978387e-09	-6.636481e-06	-3.216233e-06	9.999065e-01	-1.365876e-08	9.999105e-01	9.999076e-01	9.999076e-01	8.544023e-05	8.544023e-05	9.999095e-01	9.999086e-01	1.978387e-09	1.000000e+00	
211	1.988387e-09	6.668944e-06	3.205740e-06	9.999078e-01	2.934968e-08	9.999104e-01	9.999076e-01	9.999076e-01	8.846187e-05	8.846187e-05	9.999095e-01	9.999086e-01	1.988387e-09	1.000000e+00	
212	1.998387e-09	-6.633611e-06	-3.161638e-06	9.999065e-01	-1.117324e-08	9.999105e-01	9.999076e-01	9.999076e-01	8.545776e-05	8.545776e-05	9.999095e-01	9.999086e-01	1.998387e-09	1.000000e+00	
213	2.000000e-09	6.658387e-06	3.016367e-06	9.999078e-01	2.104929e-08	9.999104e-01	9.999076e-01	9.999076e-01	8.840022e-05	8.840022e-05	9.999095e-01	9.999086e-01	2.000000e-09	1.000000e+00	

                                                                                                              * spice from s1000s
                                                                                                              Transient Analysis  Fri Feb 20 21:56:54  2009
------------------------------------------------------------------------------------------------------------------------------------------------------------------------------------------------------------------------------------------------
Index   time            vdd#branch      vdt#branch      
------------------------------------------------------------------------------------------------------------------------------------------------------------------------------------------------------------------------------------------------
0	0.000000e+00	-3.086004e-06	0.000000e+00	
1	1.000000e-13	-4.787520e-06	2.939385e-08	
2	2.000000e-13	-4.795257e-06	6.639461e-08	
3	4.000000e-13	-4.889643e-06	1.247502e-07	
4	8.000000e-13	-5.077105e-06	1.780635e-07	
5	1.600000e-12	-5.309254e-06	1.713489e-07	
6	3.200000e-12	-5.528925e-06	7.558184e-08	
7	6.400000e-12	-5.597346e-06	-5.876660e-09	
8	1.280000e-11	-5.606198e-06	-1.015207e-08	
9	2.280000e-11	-5.608976e-06	-1.593324e-08	
10	3.280000e-11	-5.635806e-06	-1.479157e-08	
11	4.280000e-11	-5.636017e-06	-1.729762e-08	
12	5.280000e-11	-5.654024e-06	-1.685868e-08	
13	6.280000e-11	-5.649543e-06	-1.803775e-08	
14	7.280000e-11	-5.663590e-06	-1.791799e-08	
15	8.280000e-11	-5.656542e-06	-1.843376e-08	
16	9.280000e-11	-5.668541e-06	-1.845801e-08	
17	1.028000e-10	-5.660199e-06	-1.864595e-08	
18	1.128000e-10	-5.671080e-06	-1.873372e-08	
19	1.228000e-10	-5.662123e-06	-1.875891e-08	
20	1.328000e-10	-5.672370e-06	-1.887486e-08	
21	1.428000e-10	-5.663151e-06	-1.881885e-08	
22	1.528000e-10	-5.673012e-06	-1.894706e-08	
23	1.628000e-10	-5.663708e-06	-1.885082e-08	
24	1.728000e-10	-5.673319e-06	-1.898371e-08	
25	1.828000e-10	-5.664024e-06	-1.886820e-08	
26	1.928000e-10	-5.673454e-06	-1.900193e-08	
27	2.000000e-10	-5.664209e-06	-1.887676e-08	
28	2.010000e-10	-4.035366e-05	1.121880e-04	
29	2.030000e-10	-7.147597e-05	2.142200e-04	
30	2.070000e-10	-7.208953e-05	2.079631e-04	
31	2.150000e-10	-1.042397e-04	2.178790e-04	
32	2.250000e-10	-2.363826e-04	2.203662e-04	
33	2.350000e-10	-6.615981e-04	2.460170e-04	
34	2.450000e-10	-1.483189e-03	2.700859e-04	
35	2.550000e-10	-2.540929e-03	2.902565e-04	
36	2.650000e-10	-3.522463e-03	3.332155e-04	
37	2.750000e-10	-4.256390e-03	3.853377e-04	
38	2.850000e-10	-4.816121e-03	4.035871e-04	
39	2.950000e-10	-5.413256e-03	3.921301e-04	
40	3.050000e-10	-5.902372e-03	3.376022e-04	
41	3.150000e-10	-5.781049e-03	2.866088e-04	
42	3.250000e-10	-4.889869e-03	2.731373e-04	
43	3.260000e-10	-4.675851e-03	1.638279e-04	
44	3.280000e-10	-4.135357e-03	5.559543e-05	
45	3.320000e-10	-3.318005e-03	3.168794e-05	
46	3.400000e-10	-2.234260e-03	1.869107e-05	
47	3.483870e-10	-1.572546e-03	2.241255e-05	
48	3.583870e-10	-1.092364e-03	1.152383e-05	
49	3.683870e-10	-7.898259e-04	1.319620e-05	
50	3.783870e-10	-5.695271e-04	5.825559e-06	
51	3.883870e-10	-4.212547e-04	7.607871e-06	
52	3.983870e-10	-3.038038e-04	2.757120e-06	
53	4.083870e-10	-2.283205e-04	4.435226e-06	
54	4.183870e-10	-1.631877e-04	1.203117e-06	
55	4.283870e-10	-1.257263e-04	2.632216e-06	
56	4.383870e-10	-8.834641e-05	4.518990e-07	
57	4.483870e-10	-7.100317e-05	1.598374e-06	
58	4.583870e-10	-4.846825e-05	1.079144e-07	
59	4.683870e-10	-4.179443e-05	9.964046e-07	
60	4.783870e-10	-2.722859e-05	-3.392248e-08	
61	4.883870e-10	-2.619648e-05	6.394899e-07	
62	4.983870e-10	-1.592524e-05	-7.943808e-08	
63	5.083870e-10	-1.785991e-05	4.234712e-07	
64	5.183870e-10	-9.917654e-06	-8.198167e-08	
65	5.283870e-10	-1.339754e-05	2.898197e-07	
66	5.383870e-10	-6.731639e-06	-6.768002e-08	
67	5.483870e-10	-1.100255e-05	2.052642e-07	
68	5.583870e-10	-5.048350e-06	-4.877224e-08	
69	5.683870e-10	-9.711188e-06	1.506052e-07	
70	5.783870e-10	-4.164939e-06	-3.056147e-08	
71	5.883870e-10	-9.009320e-06	1.145629e-07	
72	5.983870e-10	-3.706929e-06	-1.499378e-08	
73	6.083870e-10	-8.622655e-06	9.037407e-08	
74	6.183870e-10	-3.474849e-06	-2.471743e-09	
75	6.283870e-10	-8.404810e-06	7.389385e-08	
76	6.383870e-10	-3.362493e-06	7.247424e-09	
77	6.483870e-10	-8.277633e-06	6.252411e-08	
78	6.583870e-10	-3.313338e-06	1.462271e-08	
79	6.683870e-10	-8.199375e-06	5.460004e-08	
80	6.783870e-10	-3.297327e-06	2.013622e-08	
81	6.883870e-10	-8.147713e-06	4.903259e-08	
82	6.983870e-10	-3.298495e-06	2.421604e-08	
83	7.083870e-10	-8.110696e-06	4.509595e-08	
84	7.183870e-10	-3.308377e-06	2.721365e-08	
85	7.283870e-10	-8.081910e-06	4.229860e-08	
86	7.383870e-10	-3.322498e-06	2.940522e-08	
87	7.483870e-10	-8.057903e-06	4.030309e-08	
88	7.583870e-10	-3.338502e-06	3.100197e-08	
89	7.683870e-10	-8.036809e-06	3.887522e-08	
90	7.783870e-10	-3.355157e-06	3.216261e-08	
91	7.883870e-10	-8.017607e-06	3.785100e-08	
92	7.983870e-10	-3.371829e-06	3.300498e-08	
93	8.083870e-10	-7.999736e-06	3.711481e-08	
94	8.183870e-10	-3.388197e-06	3.361583e-08	
95	8.283870e-10	-7.982878e-06	3.658467e-08	
96	8.383870e-10	-3.404108e-06	3.405867e-08	
97	8.483870e-10	-7.966849e-06	3.620225e-08	
98	8.583870e-10	-3.419493e-06	3.437978e-08	
99	8.683870e-10	-7.951537e-06	3.592590e-08	
100	8.783870e-10	-3.434329e-06	3.461279e-08	
101	8.883870e-10	-7.936869e-06	3.572580e-08	
102	8.983870e-10	-3.448616e-06	3.478210e-08	
103	9.083870e-10	-7.922797e-06	3.558057e-08	
104	9.183870e-10	-3.462364e-06	3.490534e-08	
105	9.283870e-10	-7.909282e-06	3.547489e-08	
106	9.383870e-10	-3.475590e-06	3.499530e-08	
107	9.483870e-10	-7.896294e-06	3.539770e-08	
108	9.583870e-10	-3.488311e-06	3.506120e-08	
109	9.683870e-10	-7.883809e-06	3.534109e-08	
110	9.783870e-10	-3.500548e-06	3.510968e-08	
111	9.883870e-10	-7.871803e-06	3.529935e-08	
112	9.983870e-10	-3.512318e-06	3.514557e-08	
113	1.008387e-09	-7.860257e-06	3.526835e-08	
114	1.018387e-09	-3.523640e-06	3.517234e-08	
115	1.028387e-09	-7.849151e-06	3.524515e-08	
116	1.038387e-09	-3.534532e-06	3.519247e-08	
117	1.048387e-09	-7.838467e-06	3.522760e-08	
118	1.058387e-09	-3.545010e-06	3.520780e-08	
119	1.068387e-09	-7.828190e-06	3.521416e-08	
120	1.078387e-09	-3.555091e-06	3.521961e-08	
121	1.088387e-09	-7.818301e-06	3.520373e-08	
122	1.098387e-09	-3.564790e-06	3.522886e-08	
123	1.108387e-09	-7.808788e-06	3.519549e-08	
124	1.118387e-09	-3.574122e-06	3.523622e-08	
125	1.128387e-09	-7.799633e-06	3.518888e-08	
126	1.138387e-09	-3.583101e-06	3.524218e-08	
127	1.148387e-09	-7.790825e-06	3.518347e-08	
128	1.158387e-09	-3.591742e-06	3.524711e-08	
129	1.168387e-09	-7.782349e-06	3.517896e-08	
130	1.178387e-09	-3.600057e-06	3.525126e-08	
131	1.188387e-09	-7.774192e-06	3.517513e-08	
132	1.198387e-09	-3.608059e-06	3.525482e-08	
133	1.208387e-09	-7.766341e-06	3.517181e-08	
134	1.218387e-09	-3.615761e-06	3.525792e-08	
135	1.228387e-09	-7.758786e-06	3.516889e-08	
136	1.238387e-09	-3.623173e-06	3.526067e-08	
137	1.248387e-09	-7.751515e-06	3.516629e-08	
138	1.258387e-09	-3.630307e-06	3.526314e-08	
139	1.268387e-09	-7.744515e-06	3.516394e-08	
140	1.278387e-09	-3.637174e-06	3.526539e-08	
141	1.288387e-09	-7.737778e-06	3.516180e-08	
142	1.298387e-09	-3.643784e-06	3.526744e-08	
143	1.308387e-09	-7.731293e-06	3.515982e-08	
144	1.318387e-09	-3.650147e-06	3.526934e-08	
145	1.328387e-09	-7.725049e-06	3.515800e-08	
146	1.338387e-09	-3.656273e-06	3.527110e-08	
147	1.348387e-09	-7.719038e-06	3.515629e-08	
148	1.358387e-09	-3.662171e-06	3.527275e-08	
149	1.368387e-09	-7.713251e-06	3.515470e-08	
150	1.378387e-09	-3.667850e-06	3.527429e-08	
151	1.388387e-09	-7.707679e-06	3.515320e-08	
152	1.398387e-09	-3.673318e-06	3.527574e-08	
153	1.408387e-09	-7.702313e-06	3.515180e-08	
154	1.418387e-09	-3.678583e-06	3.527711e-08	
155	1.428387e-09	-7.697146e-06	3.515047e-08	
156	1.438387e-09	-3.683654e-06	3.527839e-08	
157	1.448387e-09	-7.692169e-06	3.514922e-08	
158	1.458387e-09	-3.688538e-06	3.527961e-08	
159	1.468387e-09	-7.687376e-06	3.514804e-08	
160	1.478387e-09	-3.693242e-06	3.528075e-08	
161	1.488387e-09	-7.682759e-06	3.514693e-08	
162	1.498387e-09	-3.697774e-06	3.528184e-08	
163	1.508387e-09	-7.678311e-06	3.514587e-08	
164	1.518387e-09	-3.702139e-06	3.528286e-08	
165	1.528387e-09	-7.674026e-06	3.514488e-08	
166	1.538387e-09	-3.706345e-06	3.528383e-08	
167	1.548387e-09	-7.669898e-06	3.514394e-08	
168	1.558387e-09	-3.710398e-06	3.528474e-08	
169	1.568387e-09	-7.665920e-06	3.514305e-08	
170	1.578387e-09	-3.714303e-06	3.528561e-08	
171	1.588387e-09	-7.662086e-06	3.514221e-08	
172	1.598387e-09	-3.718067e-06	3.528642e-08	
173	1.608387e-09	-7.658390e-06	3.514142e-08	
174	1.618387e-09	-3.721695e-06	3.528719e-08	
175	1.628387e-09	-7.654829e-06	3.514067e-08	
176	1.638387e-09	-3.725192e-06	3.528792e-08	
177	1.648387e-09	-7.651395e-06	3.513996e-08	
178	1.658387e-09	-3.728564e-06	3.528861e-08	
179	1.668387e-09	-7.648084e-06	3.513930e-08	
180	1.678387e-09	-3.731815e-06	3.528925e-08	
181	1.688387e-09	-7.644891e-06	3.513867e-08	
182	1.698387e-09	-3.734951e-06	3.528986e-08	
183	1.708387e-09	-7.641812e-06	3.513808e-08	
184	1.718387e-09	-3.737975e-06	3.529043e-08	
185	1.728387e-09	-7.638842e-06	3.513753e-08	
186	1.738387e-09	-3.740892e-06	3.529097e-08	
187	1.748387e-09	-7.635976e-06	3.513701e-08	
188	1.758387e-09	-3.743707e-06	3.529147e-08	
189	1.768387e-09	-7.633212e-06	3.513652e-08	
190	1.778387e-09	-3.746422e-06	3.529194e-08	
191	1.788387e-09	-7.630544e-06	3.513607e-08	
192	1.798387e-09	-3.749044e-06	3.529238e-08	
193	1.808387e-09	-7.627968e-06	3.513564e-08	
194	1.818387e-09	-3.751574e-06	3.529280e-08	
195	1.828387e-09	-7.625482e-06	3.513524e-08	
196	1.838387e-09	-3.754017e-06	3.529318e-08	
197	1.848387e-09	-7.623081e-06	3.513487e-08	
198	1.858387e-09	-3.756376e-06	3.529354e-08	
199	1.868387e-09	-7.620763e-06	3.513452e-08	
200	1.878387e-09	-3.758655e-06	3.529387e-08	
201	1.888387e-09	-7.618523e-06	3.513420e-08	
202	1.898387e-09	-3.760856e-06	3.529418e-08	
203	1.908387e-09	-7.616359e-06	3.513390e-08	
204	1.918387e-09	-3.762983e-06	3.529447e-08	
205	1.928387e-09	-7.614268e-06	3.513363e-08	
206	1.938387e-09	-3.765039e-06	3.529473e-08	
207	1.948387e-09	-7.612247e-06	3.513337e-08	
208	1.958387e-09	-3.767027e-06	3.529498e-08	
209	1.968387e-09	-7.610293e-06	3.513314e-08	
210	1.978387e-09	-3.768948e-06	3.529520e-08	
211	1.988387e-09	-7.608403e-06	3.513293e-08	
212	1.998387e-09	-3.770807e-06	3.529540e-08	
213	2.000000e-09	-7.602087e-06	3.513231e-08	

CPU time since last call: 0.080 seconds.

Total CPU time: 0.080 seconds.

Total DRAM available = 2017.597656 MB.
DRAM currently available = 74.464844 MB.
Total ngspice program size = 7.867188 MB.
Resident set size = 3.125000 MB.
Shared ngspice pages = 551.000 kB.
Text (code) pages = 1.404297 MB.
Stack = 0 bytes.
Library pages = 5.514648 MB.

