
Circuit: * spice from s1000s

Doing analysis at TEMP = 75.000000 and TNOM = 27.000000


Initial Transient Solution
--------------------------

Node                                   Voltage
----                                   -------
n0                                           1
n1                                           1
n4                                           0
n2                                           1
n3                                           0
nseg_node_5                                  1
nseg_node_6                                  1
gin                                          0
vdd                                          1
vdt#branch                                   0
vdd#branch                          -3.086e-06


No. of Data Rows : 213

                                                                                                              * spice from s1000s
                                                                                                              Transient Analysis  Fri Feb 20 21:56:53  2009
------------------------------------------------------------------------------------------------------------------------------------------------------------------------------------------------------------------------------------------------
Index   time            gin             m.x0.m1#body    m.x0.m1#dbody   m.x0.m1#gate    m.x0.m1#sbody   m.x0.m2#body    m.x0.m2#dbody   m.x0.m2#gate    m.x0.m2#sbody   m.x1.m1#body    m.x1.m1#dbody   m.x1.m1#gate    m.x1.m1#sbody   
------------------------------------------------------------------------------------------------------------------------------------------------------------------------------------------------------------------------------------------------
0	0.000000e+00	0.000000e+00	1.000000e+00	1.000000e+00	2.617601e-06	1.000000e+00	2.710698e-12	8.930349e-12	8.525608e-08	1.355349e-12	1.000000e+00	1.000000e+00	9.999992e-01	1.000000e+00	
1	1.000000e-13	0.000000e+00	9.999986e-01	9.999983e-01	1.194663e-06	9.999996e-01	-2.131402e-07	-8.787476e-07	-8.881059e-07	-6.542807e-08	1.000001e+00	1.000005e+00	1.000004e+00	1.000000e+00	
2	2.000000e-13	0.000000e+00	9.999985e-01	9.999978e-01	1.241503e-08	9.999994e-01	-2.399577e-07	-1.000320e-06	-1.544080e-06	-9.891947e-08	1.000001e+00	1.000005e+00	1.000006e+00	1.000000e+00	
3	4.000000e-13	0.000000e+00	9.999986e-01	9.999976e-01	-2.018026e-06	9.999993e-01	-2.203845e-07	-9.346365e-07	-2.457332e-06	-1.187698e-07	1.000001e+00	1.000004e+00	1.000010e+00	1.000001e+00	
4	8.000000e-13	0.000000e+00	9.999989e-01	9.999983e-01	-4.624604e-06	9.999994e-01	-1.464538e-07	-6.613377e-07	-2.907449e-06	-7.759479e-08	1.000000e+00	1.000002e+00	1.000013e+00	1.000000e+00	
5	1.600000e-12	0.000000e+00	9.999993e-01	9.999989e-01	-6.446852e-06	9.999997e-01	-9.418452e-08	-4.425135e-07	-2.212043e-06	-4.746135e-08	1.000000e+00	1.000001e+00	1.000012e+00	1.000000e+00	
6	3.200000e-12	0.000000e+00	9.999997e-01	9.999996e-01	-4.857876e-06	9.999998e-01	-3.419079e-08	-1.594347e-07	-8.263083e-07	-1.896603e-08	1.000000e+00	9.999999e-01	1.000007e+00	1.000000e+00	
7	6.400000e-12	0.000000e+00	9.999999e-01	9.999998e-01	-1.774629e-07	9.999999e-01	-1.748825e-08	-7.904717e-08	-1.714481e-07	-7.330753e-09	1.000000e+00	1.000000e+00	1.000001e+00	1.000000e+00	
8	1.280000e-11	0.000000e+00	9.999999e-01	1.000000e+00	2.252028e-06	1.000000e+00	-1.211600e-09	-5.635101e-09	-2.944065e-08	-2.121532e-09	1.000000e+00	9.999999e-01	9.999876e-01	1.000000e+00	
9	2.280000e-11	0.000000e+00	1.000000e+00	9.999999e-01	2.114269e-06	1.000000e+00	-7.880218e-09	-3.547347e-08	2.169582e-08	-2.420615e-09	1.000000e+00	1.000000e+00	9.999666e-01	1.000000e+00	
10	3.280000e-11	0.000000e+00	1.000000e+00	1.000000e+00	2.409488e-06	1.000000e+00	1.694169e-09	7.648385e-09	3.214308e-08	-6.941219e-10	1.000000e+00	9.999999e-01	9.999502e-01	1.000000e+00	
11	4.280000e-11	0.000000e+00	1.000000e+00	9.999999e-01	2.377564e-06	1.000000e+00	-6.217435e-09	-2.810178e-08	4.962909e-08	-1.556664e-09	1.000000e+00	1.000000e+00	9.999386e-01	1.000000e+00	
12	5.280000e-11	0.000000e+00	1.000000e+00	1.000000e+00	2.491481e-06	1.000000e+00	2.875070e-09	1.307429e-08	5.812449e-08	-1.324296e-10	1.000000e+00	9.999999e-01	9.999300e-01	1.000000e+00	
13	6.280000e-11	0.000000e+00	1.000000e+00	9.999999e-01	2.496711e-06	1.000000e+00	-5.259204e-09	-2.386933e-08	6.511212e-08	-1.048122e-09	1.000000e+00	1.000000e+00	9.999237e-01	1.000000e+00	
14	7.280000e-11	0.000000e+00	1.000000e+00	1.000000e+00	2.547236e-06	1.000000e+00	3.455647e-09	1.576782e-08	7.186233e-08	1.315079e-10	1.000000e+00	9.999999e-01	9.999191e-01	1.000000e+00	
15	8.280000e-11	0.000000e+00	1.000000e+00	1.000000e+00	2.554357e-06	1.000000e+00	-4.699737e-09	-2.141497e-08	7.346948e-08	-7.425608e-10	1.000000e+00	1.000000e+00	9.999158e-01	1.000000e+00	
16	9.280000e-11	0.000000e+00	1.000000e+00	1.000000e+00	2.579805e-06	1.000000e+00	3.716832e-09	1.700659e-08	7.909034e-08	2.387669e-10	1.000000e+00	9.999999e-01	9.999133e-01	1.000000e+00	
17	1.028000e-10	0.000000e+00	1.000000e+00	1.000000e+00	2.583673e-06	1.000000e+00	-4.354162e-09	-1.991331e-08	7.800203e-08	-5.475436e-10	1.000000e+00	1.000000e+00	9.999116e-01	1.000000e+00	
18	1.128000e-10	0.000000e+00	1.000000e+00	1.000000e+00	2.597892e-06	1.000000e+00	3.809908e-09	1.747831e-08	8.288471e-08	2.651956e-10	1.000000e+00	9.999999e-01	9.999103e-01	1.000000e+00	
19	1.228000e-10	0.000000e+00	1.000000e+00	1.000000e+00	2.598920e-06	1.000000e+00	-4.124855e-09	-1.892824e-08	8.046311e-08	-4.141256e-10	1.000000e+00	1.000000e+00	9.999094e-01	1.000000e+00	
20	1.328000e-10	0.000000e+00	1.000000e+00	1.000000e+00	2.607736e-06	1.000000e+00	3.815392e-09	1.754876e-08	8.487235e-08	2.510292e-10	1.000000e+00	9.999999e-01	9.999086e-01	1.000000e+00	
21	1.428000e-10	0.000000e+00	1.000000e+00	1.000000e+00	2.606943e-06	1.000000e+00	-3.959296e-09	-1.822500e-08	8.180417e-08	-3.158519e-10	1.000000e+00	1.000000e+00	9.999082e-01	1.000000e+00	
22	1.528000e-10	0.000000e+00	1.000000e+00	1.000000e+00	2.613037e-06	1.000000e+00	3.775724e-09	1.741070e-08	8.590654e-08	2.173604e-10	1.000000e+00	9.999999e-01	9.999078e-01	1.000000e+00	
23	1.628000e-10	0.000000e+00	1.000000e+00	1.000000e+00	2.611198e-06	1.000000e+00	-3.829097e-09	-1.767665e-08	8.254250e-08	-2.383162e-10	1.000000e+00	1.000000e+00	9.999075e-01	1.000000e+00	
24	1.728000e-10	0.000000e+00	1.000000e+00	1.000000e+00	2.615866e-06	1.000000e+00	3.713239e-09	1.716562e-08	8.643547e-08	1.751872e-10	1.000000e+00	9.999999e-01	9.999073e-01	1.000000e+00	
25	1.828000e-10	0.000000e+00	1.000000e+00	1.000000e+00	2.613475e-06	1.000000e+00	-3.718914e-09	-1.721468e-08	8.295808e-08	-1.736380e-10	1.000000e+00	1.000000e+00	9.999072e-01	1.000000e+00	
26	1.928000e-10	0.000000e+00	1.000000e+00	1.000000e+00	2.617360e-06	1.000000e+00	3.639693e-09	1.686704e-08	8.669557e-08	1.302063e-10	1.000000e+00	9.999999e-01	9.999070e-01	1.000000e+00	
27	2.000000e-10	0.000000e+00	1.000000e+00	1.000000e+00	2.614596e-06	1.000000e+00	-3.604857e-09	-1.673752e-08	8.318655e-08	-1.086166e-10	1.000000e+00	1.000000e+00	9.999070e-01	1.000000e+00	
28	2.010000e-10	8.000000e-03	9.999992e-01	1.000022e+00	3.090811e-03	9.999996e-01	2.527761e-05	2.406574e-05	5.693342e-03	1.189109e-05	1.000000e+00	1.000000e+00	9.999081e-01	1.000000e+00	
29	2.030000e-10	2.400000e-02	9.999866e-01	1.000024e+00	1.294686e-02	9.999938e-01	3.938473e-05	3.552865e-05	2.032936e-02	1.993433e-05	1.000000e+00	1.000000e+00	9.999168e-01	1.000000e+00	
30	2.070000e-10	5.600000e-02	1.000006e+00	1.000004e+00	4.241194e-02	1.000002e+00	2.847444e-05	1.506291e-05	5.288283e-02	1.417630e-05	1.000000e+00	1.000000e+00	1.000012e+00	1.000000e+00	
31	2.150000e-10	1.200000e-01	9.999958e-01	9.999979e-01	1.063801e-01	9.999988e-01	3.189948e-05	1.569623e-05	1.162974e-01	1.598227e-05	1.000000e+00	1.000000e+00	1.000508e+00	1.000000e+00	
32	2.250000e-10	2.000000e-01	1.000012e+00	9.999826e-01	1.862206e-01	1.000005e+00	2.350400e-05	-2.177038e-07	1.965144e-01	1.177241e-05	1.000000e+00	9.999999e-01	1.001051e+00	1.000000e+00	
33	2.350000e-10	2.800000e-01	9.999188e-01	9.998871e-01	2.658789e-01	9.999613e-01	1.925165e-05	-2.866966e-05	2.756756e-01	9.632328e-06	9.999990e-01	9.999992e-01	1.000329e+00	9.999995e-01	
34	2.450000e-10	3.600000e-01	9.999199e-01	9.997661e-01	3.449322e-01	9.999581e-01	2.937594e-06	-1.003607e-04	3.550127e-01	1.563763e-06	9.999960e-01	9.999971e-01	9.961573e-01	9.999980e-01	
35	2.550000e-10	4.400000e-01	9.999183e-01	9.996087e-01	4.241610e-01	9.999610e-01	-1.395693e-05	-1.978134e-04	4.341742e-01	-6.966161e-06	9.999901e-01	9.999934e-01	9.842756e-01	9.999951e-01	
36	2.650000e-10	5.200000e-01	9.999063e-01	9.993341e-01	5.024443e-01	9.999516e-01	-5.649013e-05	-3.799984e-04	5.133851e-01	-2.799294e-05	9.999799e-01	9.999874e-01	9.579571e-01	9.999900e-01	
37	2.750000e-10	6.000000e-01	9.998004e-01	9.990263e-01	5.805191e-01	9.999027e-01	-1.011296e-04	-5.898720e-04	5.917788e-01	-5.053347e-05	9.999653e-01	9.999806e-01	9.081205e-01	9.999827e-01	
38	2.850000e-10	6.800000e-01	9.998244e-01	9.989630e-01	6.625474e-01	9.999096e-01	-1.309927e-04	-7.120962e-04	6.697390e-01	-6.534146e-05	9.999540e-01	9.999913e-01	8.264734e-01	9.999770e-01	
39	2.950000e-10	7.600000e-01	9.997955e-01	9.990087e-01	7.457786e-01	9.999005e-01	-1.348032e-04	-7.408556e-04	7.492918e-01	-6.752899e-05	9.999739e-01	1.000119e+00	7.143418e-01	9.999867e-01	
40	3.050000e-10	8.400000e-01	9.999722e-01	9.996216e-01	8.290987e-01	9.999818e-01	-5.382675e-05	-3.357744e-04	8.315013e-01	-2.729201e-05	1.000066e+00	1.000623e+00	5.857923e-01	1.000032e+00	
41	3.150000e-10	9.200000e-01	9.999747e-01	9.997973e-01	9.116551e-01	9.999915e-01	-4.084503e-05	-1.714195e-04	9.127083e-01	-2.013389e-05	1.000590e+00	1.002821e+00	4.745997e-01	1.000291e+00	
42	3.250000e-10	1.000000e+00	1.000040e+00	9.999171e-01	9.918944e-01	1.000015e+00	-5.114311e-05	-1.235305e-04	9.927549e-01	-2.578906e-05	1.000413e+00	1.002007e+00	3.841579e-01	1.000212e+00	
43	3.260000e-10	1.000000e+00	9.999929e-01	9.998787e-01	9.957623e-01	9.999980e-01	-5.872037e-05	-1.319486e-04	9.963294e-01	-2.914892e-05	1.000303e+00	1.001492e+00	3.709361e-01	1.000156e+00	
44	3.280000e-10	1.000000e+00	9.999702e-01	9.998713e-01	9.994231e-01	9.999847e-01	-6.598392e-05	-1.306873e-04	9.995134e-01	-3.296338e-05	1.000212e+00	1.000784e+00	3.452468e-01	1.000106e+00	
45	3.320000e-10	1.000000e+00	9.999813e-01	9.999121e-01	9.993151e-01	9.999907e-01	-4.673504e-05	-9.240323e-05	9.992351e-01	-2.368773e-05	1.000148e+00	1.000363e+00	3.004576e-01	1.000076e+00	
46	3.400000e-10	1.000000e+00	9.999813e-01	9.999181e-01	9.995893e-01	9.999906e-01	-4.832028e-05	-8.704338e-05	9.995882e-01	-2.383758e-05	1.000068e+00	1.000107e+00	2.306200e-01	1.000033e+00	
47	3.500000e-10	1.000000e+00	9.999881e-01	9.999445e-01	9.995763e-01	9.999941e-01	-3.476383e-05	-6.196615e-05	9.995035e-01	-1.778065e-05	1.000007e+00	1.000032e+00	1.664547e-01	1.000005e+00	
48	3.600000e-10	1.000000e+00	9.999900e-01	9.999562e-01	9.997809e-01	9.999950e-01	-2.898970e-05	-4.821435e-05	9.997693e-01	-1.414188e-05	1.000018e+00	1.000012e+00	1.203702e-01	1.000008e+00	
49	3.700000e-10	1.000000e+00	9.999939e-01	9.999716e-01	9.997786e-01	9.999970e-01	-1.910157e-05	-3.296863e-05	9.997314e-01	-9.956396e-06	9.999927e-01	1.000007e+00	8.692022e-02	9.999979e-01	
50	3.800000e-10	1.000000e+00	9.999948e-01	9.999773e-01	9.998886e-01	9.999974e-01	-1.585760e-05	-2.516493e-05	9.998816e-01	-7.553410e-06	1.000013e+00	1.000004e+00	6.278031e-02	1.000005e+00	
51	3.900000e-10	1.000000e+00	9.999969e-01	9.999855e-01	9.998840e-01	9.999984e-01	-9.976709e-06	-1.737294e-05	9.998566e-01	-5.390939e-06	9.999902e-01	1.000003e+00	4.529053e-02	9.999970e-01	
52	4.000000e-10	1.000000e+00	9.999973e-01	9.999882e-01	9.999431e-01	9.999987e-01	-8.547066e-06	-1.294299e-05	9.999401e-01	-3.889827e-06	1.000012e+00	1.000002e+00	3.269714e-02	1.000004e+00	
53	4.100000e-10	1.000000e+00	9.999984e-01	9.999926e-01	9.999389e-01	9.999992e-01	-5.033921e-06	-9.196817e-06	9.999236e-01	-2.912952e-06	9.999894e-01	1.000001e+00	2.358295e-02	9.999968e-01	
54	4.200000e-10	1.000000e+00	9.999986e-01	9.999938e-01	9.999707e-01	9.999993e-01	-4.652639e-06	-6.550769e-06	9.999698e-01	-1.942532e-06	1.000012e+00	1.000001e+00	1.703166e-02	1.000004e+00	
55	4.300000e-10	1.000000e+00	9.999992e-01	9.999963e-01	9.999675e-01	9.999996e-01	-2.437217e-06	-4.953265e-06	9.999592e-01	-1.606621e-06	9.999890e-01	1.000000e+00	1.229117e-02	9.999969e-01	
56	4.400000e-10	1.000000e+00	9.999993e-01	9.999967e-01	9.999847e-01	9.999997e-01	-2.599989e-06	-3.220437e-06	9.999848e-01	-9.206097e-07	1.000012e+00	1.000001e+00	8.888650e-03	1.000003e+00	
57	4.500000e-10	1.000000e+00	9.999996e-01	9.999981e-01	9.999825e-01	9.999998e-01	-1.078203e-06	-2.746028e-06	9.999781e-01	-9.185129e-07	9.999888e-01	9.999996e-01	6.425043e-03	9.999970e-01	
58	4.600000e-10	1.000000e+00	9.999996e-01	9.999982e-01	9.999919e-01	9.999998e-01	-1.525994e-06	-1.490470e-06	9.999923e-01	-3.902293e-07	1.000011e+00	1.000001e+00	4.659687e-03	1.000003e+00	
59	4.700000e-10	1.000000e+00	9.999998e-01	9.999991e-01	9.999904e-01	9.999999e-01	-3.702584e-07	-1.597185e-06	9.999881e-01	-5.558144e-07	9.999887e-01	9.999994e-01	3.379633e-03	9.999972e-01	
60	4.800000e-10	1.000000e+00	9.999998e-01	9.999990e-01	9.999955e-01	9.999999e-01	-9.665291e-07	-5.951462e-07	9.999960e-01	-1.180842e-07	1.000011e+00	1.000001e+00	2.464418e-03	1.000003e+00	
61	4.900000e-10	1.000000e+00	9.999999e-01	9.999996e-01	9.999946e-01	9.999999e-01	-1.851136e-09	-9.970539e-07	9.999935e-01	-3.630255e-07	9.999887e-01	9.999993e-01	1.799187e-03	9.999974e-01	
62	5.000000e-10	1.000000e+00	9.999999e-01	9.999994e-01	9.999973e-01	1.000000e+00	-6.761959e-07	-1.345997e-07	9.999978e-01	1.919517e-08	1.000011e+00	1.000001e+00	1.325088e-03	1.000003e+00	
63	5.100000e-10	1.000000e+00	9.999999e-01	9.999999e-01	9.999967e-01	1.000000e+00	1.902248e-07	-6.810663e-07	9.999963e-01	-2.586861e-07	9.999887e-01	9.999992e-01	9.791776e-04	9.999976e-01	
64	5.200000e-10	1.000000e+00	9.999999e-01	9.999996e-01	9.999982e-01	1.000000e+00	-5.262738e-07	9.962768e-08	9.999987e-01	8.632273e-08	1.000011e+00	1.000001e+00	7.338288e-04	1.000002e+00	
65	5.300000e-10	1.000000e+00	1.000000e+00	1.000000e+00	9.999979e-01	1.000000e+00	2.909084e-07	-5.121730e-07	9.999978e-01	-2.003996e-07	9.999887e-01	9.999992e-01	5.537824e-04	9.999978e-01	
66	5.400000e-10	1.000000e+00	1.000000e+00	9.999998e-01	9.999987e-01	1.000000e+00	-4.494957e-07	2.161380e-07	9.999992e-01	1.171129e-07	1.000011e+00	1.000001e+00	4.269912e-04	1.000002e+00	
67	5.500000e-10	1.000000e+00	1.000000e+00	1.000000e+00	9.999985e-01	1.000000e+00	3.442523e-07	-4.194673e-07	9.999986e-01	-1.661720e-07	9.999888e-01	9.999992e-01	3.331311e-04	9.999979e-01	
68	5.600000e-10	1.000000e+00	1.000000e+00	9.999998e-01	9.999989e-01	1.000000e+00	-4.107689e-07	2.714999e-07	9.999994e-01	1.291991e-07	1.000011e+00	1.000001e+00	2.677438e-04	1.000002e+00	
69	5.700000e-10	1.000000e+00	1.000000e+00	1.000000e+00	9.999988e-01	1.000000e+00	3.730598e-07	-3.662925e-07	9.999991e-01	-1.446103e-07	9.999888e-01	9.999992e-01	2.186981e-04	9.999981e-01	
70	5.800000e-10	1.000000e+00	1.000000e+00	9.999999e-01	9.999991e-01	1.000000e+00	-3.917999e-07	2.951796e-07	9.999995e-01	1.317645e-07	1.000011e+00	1.000001e+00	1.850830e-04	1.000002e+00	
71	5.900000e-10	1.000000e+00	1.000000e+00	1.000000e+00	9.999990e-01	1.000000e+00	3.891214e-07	-3.337080e-07	9.999993e-01	-1.298142e-07	9.999889e-01	9.999993e-01	1.593644e-04	9.999983e-01	
72	6.000000e-10	1.000000e+00	1.000000e+00	9.999999e-01	9.999991e-01	1.000000e+00	-3.830552e-07	3.025268e-07	9.999995e-01	1.295851e-07	1.000011e+00	1.000001e+00	1.421657e-04	1.000002e+00	
73	6.100000e-10	1.000000e+00	1.000000e+00	1.000000e+00	9.999991e-01	1.000000e+00	3.985298e-07	-3.119301e-07	9.999994e-01	-1.187250e-07	9.999890e-01	9.999993e-01	1.286094e-04	9.999984e-01	
74	6.200000e-10	1.000000e+00	1.000000e+00	9.999999e-01	9.999991e-01	1.000000e+00	-3.795678e-07	3.015369e-07	9.999996e-01	1.251392e-07	1.000011e+00	1.000001e+00	1.198749e-04	1.000001e+00	
75	6.300000e-10	1.000000e+00	1.000000e+00	1.000000e+00	9.999991e-01	1.000000e+00	4.044327e-07	-2.959043e-07	9.999995e-01	-1.097527e-07	9.999890e-01	9.999994e-01	1.126755e-04	9.999986e-01	
76	6.400000e-10	1.000000e+00	1.000000e+00	9.999999e-01	9.999992e-01	1.000000e+00	-3.787506e-07	2.963732e-07	9.999996e-01	1.197081e-07	1.000011e+00	1.000001e+00	1.082906e-04	1.000001e+00	
77	6.500000e-10	1.000000e+00	1.000000e+00	1.000000e+00	9.999991e-01	1.000000e+00	4.084570e-07	-2.830182e-07	9.999995e-01	-1.020658e-07	9.999891e-01	9.999994e-01	1.044263e-04	9.999987e-01	
78	6.600000e-10	1.000000e+00	1.000000e+00	9.999999e-01	9.999992e-01	1.000000e+00	-3.792575e-07	2.892013e-07	9.999996e-01	1.139490e-07	1.000011e+00	1.000001e+00	1.022651e-04	1.000001e+00	
79	6.700000e-10	1.000000e+00	1.000000e+00	1.000000e+00	9.999991e-01	1.000000e+00	4.114446e-07	-2.719188e-07	9.999995e-01	-9.522488e-08	9.999892e-01	9.999995e-01	1.001603e-04	9.999988e-01	
80	6.800000e-10	1.000000e+00	1.000000e+00	9.999999e-01	9.999992e-01	1.000000e+00	-3.803891e-07	2.811452e-07	9.999996e-01	1.081944e-07	1.000011e+00	1.000001e+00	9.912677e-05	1.000001e+00	
81	6.900000e-10	1.000000e+00	1.000000e+00	1.000000e+00	9.999992e-01	1.000000e+00	4.138324e-07	-2.619031e-07	9.999995e-01	-8.899296e-08	9.999892e-01	9.999995e-01	9.795796e-05	9.999989e-01	
82	7.000000e-10	1.000000e+00	1.000000e+00	9.999999e-01	9.999992e-01	1.000000e+00	-3.817836e-07	2.727854e-07	9.999996e-01	1.026078e-07	1.000011e+00	1.000000e+00	9.748881e-05	1.000001e+00	
83	7.100000e-10	1.000000e+00	1.000000e+00	1.000000e+00	9.999992e-01	1.000000e+00	4.158485e-07	-2.526028e-07	9.999995e-01	-8.323813e-08	9.999893e-01	9.999996e-01	9.682408e-05	9.999991e-01	
84	7.200000e-10	1.000000e+00	1.000000e+00	9.999999e-01	9.999992e-01	1.000000e+00	-3.832548e-07	2.644194e-07	9.999996e-01	9.726496e-08	1.000011e+00	1.000000e+00	9.663125e-05	1.000001e+00	
85	7.300000e-10	1.000000e+00	1.000000e+00	1.000000e+00	9.999992e-01	1.000000e+00	4.176135e-07	-2.438227e-07	9.999996e-01	-7.788299e-08	9.999894e-01	9.999996e-01	9.624280e-05	9.999991e-01	
86	7.400000e-10	1.000000e+00	1.000000e+00	9.999999e-01	9.999992e-01	1.000000e+00	-3.847088e-07	2.561965e-07	9.999996e-01	9.219639e-08	1.000011e+00	1.000000e+00	9.618009e-05	1.000001e+00	
87	7.500000e-10	1.000000e+00	1.000000e+00	1.000000e+00	9.999992e-01	1.000000e+00	4.191921e-07	-2.354563e-07	9.999996e-01	-7.287878e-08	9.999894e-01	9.999996e-01	9.594680e-05	9.999992e-01	
88	7.600000e-10	1.000000e+00	1.000000e+00	9.999999e-01	9.999992e-01	1.000000e+00	-3.860991e-07	2.481893e-07	9.999996e-01	8.740950e-08	1.000011e+00	1.000000e+00	9.594103e-05	1.000001e+00	
89	7.700000e-10	1.000000e+00	1.000000e+00	1.000000e+00	9.999992e-01	1.000000e+00	4.206206e-07	-2.274434e-07	9.999996e-01	-6.819190e-08	9.999895e-01	9.999997e-01	9.579774e-05	9.999993e-01	
90	7.800000e-10	1.000000e+00	1.000000e+00	9.999999e-01	9.999992e-01	1.000000e+00	-3.874040e-07	2.404303e-07	9.999996e-01	8.290004e-08	1.000010e+00	1.000000e+00	9.581296e-05	1.000001e+00	
91	7.900000e-10	1.000000e+00	1.000000e+00	1.000000e+00	9.999992e-01	1.000000e+00	4.219202e-07	-2.197477e-07	9.999996e-01	-6.379707e-08	9.999895e-01	9.999997e-01	9.572403e-05	9.999994e-01	
92	8.000000e-10	1.000000e+00	1.000000e+00	9.999999e-01	9.999992e-01	1.000000e+00	-3.886151e-07	2.329311e-07	9.999996e-01	7.865814e-08	1.000010e+00	1.000000e+00	9.574324e-05	1.000001e+00	
93	8.100000e-10	1.000000e+00	1.000000e+00	1.000000e+00	9.999992e-01	1.000000e+00	4.231046e-07	-2.123450e-07	9.999996e-01	-5.967372e-08	9.999896e-01	9.999998e-01	9.568875e-05	9.999995e-01	
94	8.200000e-10	1.000000e+00	1.000000e+00	9.999999e-01	9.999992e-01	1.000000e+00	-3.897301e-07	2.256929e-07	9.999996e-01	7.467145e-08	1.000010e+00	1.000000e+00	9.570442e-05	1.000000e+00	
95	8.300000e-10	1.000000e+00	1.000000e+00	1.000000e+00	9.999992e-01	1.000000e+00	4.241830e-07	-2.052181e-07	9.999996e-01	-5.580414e-08	9.999897e-01	9.999998e-01	9.567282e-05	9.999995e-01	
96	8.400000e-10	1.000000e+00	1.000000e+00	9.999999e-01	9.999992e-01	1.000000e+00	-3.907503e-07	2.187113e-07	9.999996e-01	7.092669e-08	1.000010e+00	1.000000e+00	9.568212e-05	1.000000e+00	
97	8.500000e-10	1.000000e+00	1.000000e+00	1.000000e+00	9.999992e-01	1.000000e+00	4.251626e-07	-1.983532e-07	9.999996e-01	-5.217246e-08	9.999897e-01	9.999998e-01	9.566651e-05	9.999996e-01	
98	8.600000e-10	1.000000e+00	1.000000e+00	9.999999e-01	9.999992e-01	1.000000e+00	-3.916787e-07	2.119796e-07	9.999996e-01	6.741053e-08	1.000010e+00	1.000000e+00	9.566880e-05	1.000000e+00	
99	8.700000e-10	1.000000e+00	1.000000e+00	1.000000e+00	9.999992e-01	1.000000e+00	4.260494e-07	-1.917386e-07	9.999996e-01	-4.876418e-08	9.999898e-01	9.999999e-01	9.566481e-05	9.999996e-01	
100	8.800000e-10	1.000000e+00	1.000000e+00	9.999999e-01	9.999992e-01	1.000000e+00	-3.925189e-07	2.054896e-07	9.999996e-01	6.410993e-08	1.000010e+00	1.000000e+00	9.566046e-05	1.000000e+00	
101	8.900000e-10	1.000000e+00	1.000000e+00	1.000000e+00	9.999992e-01	1.000000e+00	4.268484e-07	-1.853638e-07	9.999996e-01	-4.556587e-08	9.999898e-01	9.999999e-01	9.566521e-05	9.999997e-01	
102	9.000000e-10	1.000000e+00	1.000000e+00	9.999999e-01	9.999992e-01	1.000000e+00	-3.932747e-07	1.992328e-07	9.999996e-01	6.101240e-08	1.000010e+00	1.000000e+00	9.565499e-05	1.000000e+00	
103	9.100000e-10	1.000000e+00	1.000000e+00	1.000000e+00	9.999992e-01	1.000000e+00	4.275644e-07	-1.792191e-07	9.999996e-01	-4.256497e-08	9.999899e-01	9.999999e-01	9.566645e-05	9.999997e-01	
104	9.200000e-10	1.000000e+00	1.000000e+00	9.999999e-01	9.999992e-01	1.000000e+00	-3.939502e-07	1.932006e-07	9.999996e-01	5.810603e-08	1.000010e+00	1.000000e+00	9.565124e-05	1.000000e+00	
105	9.300000e-10	1.000000e+00	1.000000e+00	1.000000e+00	9.999992e-01	1.000000e+00	4.282016e-07	-1.732954e-07	9.999996e-01	-3.974970e-08	9.999899e-01	1.000000e+00	9.566791e-05	9.999998e-01	
106	9.400000e-10	1.000000e+00	1.000000e+00	9.999999e-01	9.999992e-01	1.000000e+00	-3.945492e-07	1.873847e-07	9.999996e-01	5.537953e-08	1.000010e+00	1.000000e+00	9.564855e-05	1.000000e+00	
107	9.500000e-10	1.000000e+00	1.000000e+00	1.000000e+00	9.999992e-01	1.000000e+00	4.287640e-07	-1.675841e-07	9.999996e-01	-3.710900e-08	9.999900e-01	1.000000e+00	9.566933e-05	9.999998e-01	
108	9.600000e-10	1.000000e+00	1.000000e+00	9.999999e-01	9.999992e-01	1.000000e+00	-3.950756e-07	1.817768e-07	9.999996e-01	5.282226e-08	1.000010e+00	1.000000e+00	9.564658e-05	1.000000e+00	
109	9.700000e-10	1.000000e+00	1.000000e+00	1.000000e+00	9.999992e-01	1.000000e+00	4.292555e-07	-1.620771e-07	9.999996e-01	-3.463246e-08	9.999900e-01	1.000000e+00	9.567056e-05	9.999999e-01	
110	9.800000e-10	1.000000e+00	1.000000e+00	1.000000e+00	9.999992e-01	1.000000e+00	-3.955328e-07	1.763691e-07	9.999996e-01	5.042414e-08	1.000010e+00	1.000000e+00	9.564512e-05	1.000000e+00	
111	9.900000e-10	1.000000e+00	1.000000e+00	1.000000e+00	9.999992e-01	1.000000e+00	4.296796e-07	-1.567664e-07	9.999996e-01	-3.231030e-08	9.999901e-01	1.000000e+00	9.567158e-05	9.999999e-01	
112	1.000000e-09	1.000000e+00	1.000000e+00	1.000000e+00	9.999992e-01	1.000000e+00	-3.959244e-07	1.711538e-07	9.999996e-01	4.817568e-08	1.000010e+00	9.999999e-01	9.564404e-05	1.000000e+00	
113	1.010000e-09	1.000000e+00	1.000000e+00	1.000000e+00	9.999992e-01	1.000000e+00	4.300396e-07	-1.516446e-07	9.999996e-01	-3.013328e-08	9.999901e-01	1.000000e+00	9.567239e-05	9.999999e-01	
114	1.020000e-09	1.000000e+00	1.000000e+00	1.000000e+00	9.999992e-01	1.000000e+00	-3.962536e-07	1.661237e-07	9.999996e-01	4.606796e-08	1.000010e+00	9.999999e-01	9.564325e-05	1.000000e+00	
115	1.030000e-09	1.000000e+00	1.000000e+00	1.000000e+00	9.999992e-01	1.000000e+00	4.303388e-07	-1.467044e-07	9.999996e-01	-2.809272e-08	9.999902e-01	1.000000e+00	9.567298e-05	9.999999e-01	
116	1.040000e-09	1.000000e+00	1.000000e+00	1.000000e+00	9.999992e-01	1.000000e+00	-3.965236e-07	1.612718e-07	9.999996e-01	4.409253e-08	1.000010e+00	9.999999e-01	9.564271e-05	1.000000e+00	
117	1.050000e-09	1.000000e+00	1.000000e+00	1.000000e+00	9.999992e-01	1.000000e+00	4.305803e-07	-1.419390e-07	9.999996e-01	-2.618044e-08	9.999902e-01	1.000000e+00	9.567338e-05	1.000000e+00	
118	1.060000e-09	1.000000e+00	1.000000e+00	1.000000e+00	9.999992e-01	1.000000e+00	-3.967372e-07	1.565913e-07	9.999996e-01	4.224148e-08	1.000010e+00	9.999999e-01	9.564238e-05	1.000000e+00	
119	1.070000e-09	1.000000e+00	1.000000e+00	1.000000e+00	9.999992e-01	1.000000e+00	4.307668e-07	-1.373418e-07	9.999996e-01	-2.438873e-08	9.999902e-01	1.000000e+00	9.567361e-05	1.000000e+00	
120	1.080000e-09	1.000000e+00	1.000000e+00	1.000000e+00	9.999992e-01	1.000000e+00	-3.968974e-07	1.520757e-07	9.999996e-01	4.050732e-08	1.000010e+00	9.999999e-01	9.564221e-05	1.000000e+00	
121	1.090000e-09	1.000000e+00	1.000000e+00	1.000000e+00	9.999992e-01	1.000000e+00	4.309013e-07	-1.329063e-07	9.999996e-01	-2.271036e-08	9.999903e-01	1.000000e+00	9.567369e-05	1.000000e+00	
122	1.100000e-09	1.000000e+00	1.000000e+00	1.000000e+00	9.999992e-01	1.000000e+00	-3.970067e-07	1.477188e-07	9.999996e-01	3.888302e-08	1.000010e+00	9.999998e-01	9.564220e-05	1.000000e+00	
123	1.110000e-09	1.000000e+00	1.000000e+00	1.000000e+00	9.999992e-01	1.000000e+00	4.309862e-07	-1.286265e-07	9.999996e-01	-2.113848e-08	9.999903e-01	1.000000e+00	9.567362e-05	1.000000e+00	
124	1.120000e-09	1.000000e+00	1.000000e+00	1.000000e+00	9.999992e-01	1.000000e+00	-3.970678e-07	1.435146e-07	9.999996e-01	3.736195e-08	1.000010e+00	9.999998e-01	9.564233e-05	9.999999e-01	
125	1.130000e-09	1.000000e+00	1.000000e+00	1.000000e+00	9.999992e-01	1.000000e+00	4.310240e-07	-1.244965e-07	9.999996e-01	-1.966666e-08	9.999904e-01	1.000000e+00	9.567343e-05	1.000000e+00	
126	1.140000e-09	1.000000e+00	1.000000e+00	1.000000e+00	9.999992e-01	1.000000e+00	-3.970830e-07	1.394575e-07	9.999996e-01	3.593787e-08	1.000010e+00	9.999998e-01	9.564257e-05	9.999999e-01	
127	1.150000e-09	1.000000e+00	1.000000e+00	1.000000e+00	9.999992e-01	1.000000e+00	4.310171e-07	-1.205108e-07	9.999996e-01	-1.828886e-08	9.999904e-01	1.000000e+00	9.567314e-05	1.000000e+00	
128	1.160000e-09	1.000000e+00	1.000000e+00	1.000000e+00	9.999992e-01	1.000000e+00	-3.970546e-07	1.355419e-07	9.999996e-01	3.460492e-08	1.000010e+00	9.999998e-01	9.564292e-05	9.999999e-01	
129	1.170000e-09	1.000000e+00	1.000000e+00	1.000000e+00	9.999992e-01	1.000000e+00	4.309678e-07	-1.166640e-07	9.999996e-01	-1.699936e-08	9.999904e-01	1.000000e+00	9.567273e-05	1.000000e+00	
130	1.180000e-09	1.000000e+00	1.000000e+00	1.000000e+00	9.999992e-01	1.000000e+00	-3.969848e-07	1.317625e-07	9.999996e-01	3.335755e-08	1.000009e+00	9.999998e-01	9.564337e-05	9.999999e-01	
131	1.190000e-09	1.000000e+00	1.000000e+00	1.000000e+00	9.999992e-01	1.000000e+00	4.308781e-07	-1.129508e-07	9.999996e-01	-1.579282e-08	9.999905e-01	1.000000e+00	9.567224e-05	1.000000e+00	
132	1.200000e-09	1.000000e+00	1.000000e+00	1.000000e+00	9.999992e-01	1.000000e+00	-3.968757e-07	1.281143e-07	9.999996e-01	3.219057e-08	1.000009e+00	9.999998e-01	9.564390e-05	9.999999e-01	
133	1.210000e-09	1.000000e+00	1.000000e+00	1.000000e+00	9.999992e-01	1.000000e+00	4.307500e-07	-1.093664e-07	9.999996e-01	-1.466417e-08	9.999905e-01	1.000000e+00	9.567168e-05	1.000000e+00	
134	1.220000e-09	1.000000e+00	1.000000e+00	1.000000e+00	9.999992e-01	1.000000e+00	-3.967292e-07	1.245924e-07	9.999996e-01	3.109906e-08	1.000009e+00	9.999998e-01	9.564450e-05	9.999999e-01	
135	1.230000e-09	1.000000e+00	1.000000e+00	1.000000e+00	9.999992e-01	1.000000e+00	4.305855e-07	-1.059059e-07	9.999996e-01	-1.360866e-08	9.999906e-01	1.000000e+00	9.567104e-05	1.000000e+00	
136	1.240000e-09	1.000000e+00	1.000000e+00	1.000000e+00	9.999992e-01	1.000000e+00	-3.965471e-07	1.211922e-07	9.999996e-01	3.007844e-08	1.000009e+00	9.999997e-01	9.564518e-05	9.999999e-01	
137	1.250000e-09	1.000000e+00	1.000000e+00	1.000000e+00	9.999992e-01	1.000000e+00	4.303863e-07	-1.025648e-07	9.999996e-01	-1.262183e-08	9.999906e-01	1.000000e+00	9.567033e-05	1.000000e+00	
138	1.260000e-09	1.000000e+00	1.000000e+00	1.000000e+00	9.999992e-01	1.000000e+00	-3.963313e-07	1.179091e-07	9.999996e-01	2.912434e-08	1.000009e+00	9.999997e-01	9.564591e-05	9.999999e-01	
139	1.270000e-09	1.000000e+00	1.000000e+00	1.000000e+00	9.999992e-01	1.000000e+00	4.301543e-07	-9.933866e-08	9.999996e-01	-1.169945e-08	9.999906e-01	1.000000e+00	9.566956e-05	1.000000e+00	
140	1.280000e-09	1.000000e+00	1.000000e+00	1.000000e+00	9.999992e-01	1.000000e+00	-3.960834e-07	1.147389e-07	9.999996e-01	2.823270e-08	1.000009e+00	9.999997e-01	9.564672e-05	9.999998e-01	
141	1.290000e-09	1.000000e+00	1.000000e+00	1.000000e+00	9.999992e-01	1.000000e+00	4.298910e-07	-9.622330e-08	9.999996e-01	-1.083757e-08	9.999907e-01	1.000000e+00	9.566873e-05	1.000000e+00	
142	1.300000e-09	1.000000e+00	1.000000e+00	1.000000e+00	9.999992e-01	1.000000e+00	-3.958051e-07	1.116774e-07	9.999996e-01	2.739965e-08	1.000009e+00	9.999997e-01	9.564757e-05	9.999998e-01	
143	1.310000e-09	1.000000e+00	1.000000e+00	1.000000e+00	9.999992e-01	1.000000e+00	4.295980e-07	-9.321465e-08	9.999996e-01	-1.003247e-08	9.999907e-01	1.000000e+00	9.566785e-05	1.000000e+00	
144	1.320000e-09	1.000000e+00	1.000000e+00	1.000000e+00	9.999992e-01	1.000000e+00	-3.954978e-07	1.087206e-07	9.999996e-01	2.662160e-08	1.000009e+00	9.999997e-01	9.564847e-05	9.999998e-01	
145	1.330000e-09	1.000000e+00	1.000000e+00	1.000000e+00	9.999992e-01	1.000000e+00	4.292767e-07	-9.030880e-08	9.999996e-01	-9.280621e-09	9.999907e-01	1.000000e+00	9.566692e-05	1.000000e+00	
146	1.340000e-09	1.000000e+00	1.000000e+00	1.000000e+00	9.999992e-01	1.000000e+00	-3.951629e-07	1.058648e-07	9.999996e-01	2.589514e-08	1.000009e+00	9.999997e-01	9.564942e-05	9.999998e-01	
147	1.350000e-09	1.000000e+00	1.000000e+00	1.000000e+00	9.999992e-01	1.000000e+00	4.289287e-07	-8.750201e-08	9.999996e-01	-8.578739e-09	9.999908e-01	1.000000e+00	9.566596e-05	1.000000e+00	
148	1.360000e-09	1.000000e+00	1.000000e+00	1.000000e+00	9.999992e-01	1.000000e+00	-3.948020e-07	1.031061e-07	9.999996e-01	2.521706e-08	1.000009e+00	9.999997e-01	9.565040e-05	9.999998e-01	
149	1.370000e-09	1.000000e+00	1.000000e+00	1.000000e+00	9.999992e-01	1.000000e+00	4.285551e-07	-8.479069e-08	9.999996e-01	-7.923717e-09	9.999908e-01	1.000000e+00	9.566496e-05	1.000000e+00	
150	1.380000e-09	1.000000e+00	1.000000e+00	1.000000e+00	9.999992e-01	1.000000e+00	-3.944162e-07	1.004413e-07	9.999996e-01	2.458436e-08	1.000009e+00	9.999997e-01	9.565142e-05	9.999998e-01	
151	1.390000e-09	1.000000e+00	1.000000e+00	1.000000e+00	9.999992e-01	1.000000e+00	4.281574e-07	-8.217138e-08	9.999996e-01	-7.312636e-09	9.999908e-01	1.000000e+00	9.566392e-05	1.000000e+00	
152	1.400000e-09	1.000000e+00	1.000000e+00	1.000000e+00	9.999992e-01	1.000000e+00	-3.940068e-07	9.786668e-08	9.999996e-01	2.399421e-08	1.000009e+00	9.999997e-01	9.565248e-05	9.999998e-01	
153	1.410000e-09	1.000000e+00	1.000000e+00	1.000000e+00	9.999992e-01	1.000000e+00	4.277366e-07	-7.964073e-08	9.999996e-01	-6.742749e-09	9.999909e-01	1.000000e+00	9.566285e-05	1.000000e+00	
154	1.420000e-09	1.000000e+00	1.000000e+00	1.000000e+00	9.999992e-01	1.000000e+00	-3.935750e-07	9.537917e-08	9.999996e-01	2.344394e-08	1.000009e+00	9.999997e-01	9.565356e-05	9.999998e-01	
155	1.430000e-09	1.000000e+00	1.000000e+00	1.000000e+00	9.999992e-01	1.000000e+00	4.272940e-07	-7.719557e-08	9.999996e-01	-6.211474e-09	9.999909e-01	1.000000e+00	9.566175e-05	1.000000e+00	
156	1.440000e-09	1.000000e+00	1.000000e+00	1.000000e+00	9.999992e-01	1.000000e+00	-3.931219e-07	9.297559e-08	9.999996e-01	2.293106e-08	1.000009e+00	9.999997e-01	9.565467e-05	9.999998e-01	
157	1.450000e-09	1.000000e+00	1.000000e+00	1.000000e+00	9.999992e-01	1.000000e+00	4.268307e-07	-7.483281e-08	9.999996e-01	-5.716385e-09	9.999909e-01	1.000000e+00	9.566064e-05	1.000000e+00	
158	1.460000e-09	1.000000e+00	1.000000e+00	1.000000e+00	9.999992e-01	1.000000e+00	-3.926485e-07	9.065292e-08	9.999996e-01	2.245320e-08	1.000009e+00	9.999997e-01	9.565580e-05	9.999998e-01	
159	1.470000e-09	1.000000e+00	1.000000e+00	1.000000e+00	9.999992e-01	1.000000e+00	4.263476e-07	-7.254950e-08	9.999996e-01	-5.255197e-09	9.999910e-01	1.000000e+00	9.565949e-05	1.000000e+00	
160	1.480000e-09	1.000000e+00	1.000000e+00	1.000000e+00	9.999992e-01	1.000000e+00	-3.921560e-07	8.840825e-08	9.999996e-01	2.200815e-08	1.000009e+00	9.999997e-01	9.565696e-05	9.999998e-01	
161	1.490000e-09	1.000000e+00	1.000000e+00	1.000000e+00	9.999992e-01	1.000000e+00	4.258458e-07	-7.034280e-08	9.999996e-01	-4.825764e-09	9.999910e-01	1.000000e+00	9.565832e-05	1.000000e+00	
162	1.500000e-09	1.000000e+00	1.000000e+00	1.000000e+00	9.999992e-01	1.000000e+00	-3.916452e-07	8.623882e-08	9.999996e-01	2.159383e-08	1.000009e+00	9.999997e-01	9.565814e-05	9.999998e-01	
163	1.510000e-09	1.000000e+00	1.000000e+00	1.000000e+00	9.999992e-01	1.000000e+00	4.253262e-07	-6.820996e-08	9.999996e-01	-4.426070e-09	9.999910e-01	1.000000e+00	9.565714e-05	1.000000e+00	
164	1.520000e-09	1.000000e+00	1.000000e+00	1.000000e+00	9.999992e-01	1.000000e+00	-3.911170e-07	8.414192e-08	9.999996e-01	2.120828e-08	1.000009e+00	9.999997e-01	9.565932e-05	9.999998e-01	
165	1.530000e-09	1.000000e+00	1.000000e+00	1.000000e+00	9.999992e-01	1.000000e+00	4.247898e-07	-6.614836e-08	9.999996e-01	-4.054218e-09	9.999911e-01	1.000000e+00	9.565594e-05	1.000000e+00	
166	1.540000e-09	1.000000e+00	1.000000e+00	1.000000e+00	9.999992e-01	1.000000e+00	-3.905725e-07	8.211498e-08	9.999996e-01	2.084968e-08	1.000009e+00	9.999997e-01	9.566054e-05	9.999998e-01	
167	1.550000e-09	1.000000e+00	1.000000e+00	1.000000e+00	9.999992e-01	1.000000e+00	4.242373e-07	-6.415546e-08	9.999996e-01	-3.708425e-09	9.999911e-01	1.000000e+00	9.565472e-05	1.000000e+00	
168	1.560000e-09	1.000000e+00	1.000000e+00	1.000000e+00	9.999992e-01	1.000000e+00	-3.900123e-07	8.015552e-08	9.999996e-01	2.051628e-08	1.000009e+00	9.999997e-01	9.566175e-05	9.999998e-01	
169	1.570000e-09	1.000000e+00	1.000000e+00	1.000000e+00	9.999992e-01	1.000000e+00	4.236696e-07	-6.222883e-08	9.999996e-01	-3.387018e-09	9.999911e-01	1.000000e+00	9.565351e-05	1.000000e+00	
170	1.580000e-09	1.000000e+00	1.000000e+00	1.000000e+00	9.999992e-01	1.000000e+00	-3.894373e-07	7.826114e-08	9.999996e-01	2.020647e-08	1.000009e+00	9.999997e-01	9.566298e-05	9.999998e-01	
171	1.590000e-09	1.000000e+00	1.000000e+00	1.000000e+00	9.999992e-01	1.000000e+00	4.230874e-07	-6.036613e-08	9.999996e-01	-3.088423e-09	9.999912e-01	1.000000e+00	9.565227e-05	1.000000e+00	
172	1.600000e-09	1.000000e+00	1.000000e+00	1.000000e+00	9.999992e-01	1.000000e+00	-3.888482e-07	7.642955e-08	9.999996e-01	1.991872e-08	1.000009e+00	9.999997e-01	9.566422e-05	9.999998e-01	
173	1.610000e-09	1.000000e+00	1.000000e+00	1.000000e+00	9.999992e-01	1.000000e+00	4.224916e-07	-5.856510e-08	9.999996e-01	-2.811160e-09	9.999912e-01	1.000000e+00	9.565103e-05	1.000000e+00	
174	1.620000e-09	1.000000e+00	1.000000e+00	1.000000e+00	9.999992e-01	1.000000e+00	-3.882457e-07	7.465853e-08	9.999996e-01	1.965160e-08	1.000009e+00	9.999997e-01	9.566547e-05	9.999998e-01	
175	1.630000e-09	1.000000e+00	1.000000e+00	1.000000e+00	9.999992e-01	1.000000e+00	4.218827e-07	-5.682357e-08	9.999996e-01	-2.553844e-09	9.999912e-01	1.000000e+00	9.564977e-05	1.000000e+00	
176	1.640000e-09	1.000000e+00	1.000000e+00	1.000000e+00	9.999992e-01	1.000000e+00	-3.876306e-07	7.294596e-08	9.999996e-01	1.940376e-08	1.000009e+00	9.999997e-01	9.566672e-05	9.999998e-01	
177	1.650000e-09	1.000000e+00	1.000000e+00	1.000000e+00	9.999992e-01	1.000000e+00	4.212615e-07	-5.513944e-08	9.999996e-01	-2.315169e-09	9.999913e-01	1.000000e+00	9.564852e-05	1.000000e+00	
178	1.660000e-09	1.000000e+00	1.000000e+00	1.000000e+00	9.999992e-01	1.000000e+00	-3.870035e-07	7.128977e-08	9.999996e-01	1.917394e-08	1.000009e+00	9.999997e-01	9.566797e-05	9.999998e-01	
179	1.670000e-09	1.000000e+00	1.000000e+00	1.000000e+00	9.999992e-01	1.000000e+00	4.206286e-07	-5.351070e-08	9.999996e-01	-2.093910e-09	9.999913e-01	1.000000e+00	9.564726e-05	1.000000e+00	
180	1.680000e-09	1.000000e+00	1.000000e+00	1.000000e+00	9.999992e-01	1.000000e+00	-3.863650e-07	6.968801e-08	9.999996e-01	1.896096e-08	1.000009e+00	9.999997e-01	9.566924e-05	9.999998e-01	
181	1.690000e-09	1.000000e+00	1.000000e+00	1.000000e+00	9.999992e-01	1.000000e+00	4.199846e-07	-5.193543e-08	9.999996e-01	-1.888918e-09	9.999913e-01	1.000000e+00	9.564600e-05	1.000000e+00	
182	1.700000e-09	1.000000e+00	1.000000e+00	1.000000e+00	9.999992e-01	1.000000e+00	-3.857156e-07	6.813876e-08	9.999996e-01	1.876369e-08	1.000009e+00	9.999997e-01	9.567050e-05	9.999998e-01	
183	1.710000e-09	1.000000e+00	1.000000e+00	1.000000e+00	9.999992e-01	1.000000e+00	4.193301e-07	-5.041174e-08	9.999996e-01	-1.699114e-09	9.999913e-01	1.000000e+00	9.564474e-05	1.000000e+00	
184	1.720000e-09	1.000000e+00	1.000000e+00	1.000000e+00	9.999992e-01	1.000000e+00	-3.850560e-07	6.664019e-08	9.999996e-01	1.858109e-08	1.000009e+00	9.999997e-01	9.567176e-05	9.999998e-01	
185	1.730000e-09	1.000000e+00	1.000000e+00	1.000000e+00	9.999992e-01	1.000000e+00	4.186656e-07	-4.893786e-08	9.999996e-01	-1.523485e-09	9.999914e-01	1.000000e+00	9.564347e-05	1.000000e+00	
186	1.740000e-09	1.000000e+00	1.000000e+00	1.000000e+00	9.999992e-01	1.000000e+00	-3.843868e-07	6.519055e-08	9.999996e-01	1.841219e-08	1.000009e+00	9.999997e-01	9.567303e-05	9.999998e-01	
187	1.750000e-09	1.000000e+00	1.000000e+00	1.000000e+00	9.999992e-01	1.000000e+00	4.179916e-07	-4.751203e-08	9.999996e-01	-1.361079e-09	9.999914e-01	1.000000e+00	9.564220e-05	1.000000e+00	
188	1.760000e-09	1.000000e+00	1.000000e+00	1.000000e+00	9.999992e-01	1.000000e+00	-3.837083e-07	6.378812e-08	9.999996e-01	1.825606e-08	1.000009e+00	9.999997e-01	9.567430e-05	9.999998e-01	
189	1.770000e-09	1.000000e+00	1.000000e+00	1.000000e+00	9.999992e-01	1.000000e+00	4.173087e-07	-4.613260e-08	9.999996e-01	-1.211004e-09	9.999914e-01	1.000000e+00	9.564094e-05	1.000000e+00	
190	1.780000e-09	1.000000e+00	1.000000e+00	1.000000e+00	9.999992e-01	1.000000e+00	-3.830211e-07	6.243128e-08	9.999996e-01	1.811183e-08	1.000009e+00	9.999997e-01	9.567556e-05	9.999998e-01	
191	1.790000e-09	1.000000e+00	1.000000e+00	1.000000e+00	9.999992e-01	1.000000e+00	4.166174e-07	-4.479796e-08	9.999996e-01	-1.072424e-09	9.999915e-01	1.000000e+00	9.563968e-05	1.000000e+00	
192	1.800000e-09	1.000000e+00	1.000000e+00	1.000000e+00	9.999992e-01	1.000000e+00	-3.823256e-07	6.111846e-08	9.999996e-01	1.797870e-08	1.000008e+00	9.999997e-01	9.567681e-05	9.999998e-01	
193	1.810000e-09	1.000000e+00	1.000000e+00	1.000000e+00	9.999992e-01	1.000000e+00	4.159180e-07	-4.350657e-08	9.999996e-01	-9.445543e-10	9.999915e-01	1.000000e+00	9.563843e-05	1.000000e+00	
194	1.820000e-09	1.000000e+00	1.000000e+00	1.000000e+00	9.999992e-01	1.000000e+00	-3.816224e-07	5.984812e-08	9.999996e-01	1.785591e-08	1.000008e+00	9.999997e-01	9.567807e-05	9.999998e-01	
195	1.830000e-09	1.000000e+00	1.000000e+00	1.000000e+00	9.999992e-01	1.000000e+00	4.152110e-07	-4.225692e-08	9.999996e-01	-8.266568e-10	9.999915e-01	1.000000e+00	9.563718e-05	1.000000e+00	
196	1.840000e-09	1.000000e+00	1.000000e+00	1.000000e+00	9.999992e-01	1.000000e+00	-3.809118e-07	5.861881e-08	9.999996e-01	1.774274e-08	1.000008e+00	9.999997e-01	9.567932e-05	9.999998e-01	
197	1.850000e-09	1.000000e+00	1.000000e+00	1.000000e+00	9.999992e-01	1.000000e+00	4.144969e-07	-4.104760e-08	9.999996e-01	-7.180437e-10	9.999915e-01	1.000000e+00	9.563593e-05	1.000000e+00	
198	1.860000e-09	1.000000e+00	1.000000e+00	1.000000e+00	9.999992e-01	1.000000e+00	-3.801942e-07	5.742912e-08	9.999996e-01	1.763852e-08	1.000008e+00	9.999997e-01	9.568056e-05	9.999998e-01	
199	1.870000e-09	1.000000e+00	1.000000e+00	1.000000e+00	9.999992e-01	1.000000e+00	4.137759e-07	-3.987720e-08	9.999996e-01	-6.180648e-10	9.999916e-01	1.000000e+00	9.563469e-05	1.000000e+00	
200	1.880000e-09	1.000000e+00	1.000000e+00	1.000000e+00	9.999992e-01	1.000000e+00	-3.794700e-07	5.627769e-08	9.999996e-01	1.754263e-08	1.000008e+00	9.999997e-01	9.568180e-05	9.999998e-01	
201	1.890000e-09	1.000000e+00	1.000000e+00	1.000000e+00	9.999992e-01	1.000000e+00	4.130486e-07	-3.874440e-08	9.999996e-01	-5.261162e-10	9.999916e-01	1.000000e+00	9.563345e-05	1.000000e+00	
202	1.900000e-09	1.000000e+00	1.000000e+00	1.000000e+00	9.999992e-01	1.000000e+00	-3.787396e-07	5.516321e-08	9.999996e-01	1.745448e-08	1.000008e+00	9.999997e-01	9.568304e-05	9.999998e-01	
203	1.910000e-09	1.000000e+00	1.000000e+00	1.000000e+00	9.999992e-01	1.000000e+00	4.123152e-07	-3.764792e-08	9.999996e-01	-4.416288e-10	9.999916e-01	1.000000e+00	9.563222e-05	1.000000e+00	
204	1.920000e-09	1.000000e+00	1.000000e+00	1.000000e+00	9.999992e-01	1.000000e+00	-3.780033e-07	5.408441e-08	9.999996e-01	1.737352e-08	1.000008e+00	9.999997e-01	9.568426e-05	9.999998e-01	
205	1.930000e-09	1.000000e+00	1.000000e+00	1.000000e+00	9.999992e-01	1.000000e+00	4.115761e-07	-3.658651e-08	9.999996e-01	-3.640705e-10	9.999916e-01	1.000000e+00	9.563100e-05	1.000000e+00	
206	1.940000e-09	1.000000e+00	1.000000e+00	1.000000e+00	9.999992e-01	1.000000e+00	-3.772615e-07	5.304008e-08	9.999996e-01	1.729924e-08	1.000008e+00	9.999997e-01	9.568548e-05	9.999998e-01	
207	1.950000e-09	1.000000e+00	1.000000e+00	1.000000e+00	9.999992e-01	1.000000e+00	4.108316e-07	-3.555897e-08	9.999996e-01	-2.929413e-10	9.999917e-01	1.000000e+00	9.562979e-05	1.000000e+00	
208	1.960000e-09	1.000000e+00	1.000000e+00	1.000000e+00	9.999992e-01	1.000000e+00	-3.765144e-07	5.202905e-08	9.999996e-01	1.723115e-08	1.000008e+00	9.999997e-01	9.568669e-05	9.999998e-01	
209	1.970000e-09	1.000000e+00	1.000000e+00	1.000000e+00	9.999992e-01	1.000000e+00	4.100820e-07	-3.456415e-08	9.999996e-01	-2.277761e-10	9.999917e-01	1.000000e+00	9.562858e-05	1.000000e+00	
210	1.980000e-09	1.000000e+00	1.000000e+00	1.000000e+00	9.999992e-01	1.000000e+00	-3.757624e-07	5.105018e-08	9.999996e-01	1.716880e-08	1.000008e+00	9.999997e-01	9.568788e-05	9.999998e-01	
211	1.990000e-09	1.000000e+00	1.000000e+00	1.000000e+00	9.999992e-01	1.000000e+00	4.093277e-07	-3.360096e-08	9.999996e-01	-1.681376e-10	9.999917e-01	1.000000e+00	9.562738e-05	1.000000e+00	
212	2.000000e-09	1.000000e+00	1.000000e+00	1.000000e+00	9.999992e-01	1.000000e+00	-3.750058e-07	5.010238e-08	9.999996e-01	1.711177e-08	1.000008e+00	9.999997e-01	9.568907e-05	9.999998e-01	

                                                                                                              * spice from s1000s
                                                                                                              Transient Analysis  Fri Feb 20 21:56:53  2009
------------------------------------------------------------------------------------------------------------------------------------------------------------------------------------------------------------------------------------------------
Index   time            m.x1.m2#body    m.x1.m2#dbody   m.x1.m2#gate    m.x1.m2#sbody   n0              n1              n2              n3              n4              nseg_node_5     nseg_node_6     time            vdd             
------------------------------------------------------------------------------------------------------------------------------------------------------------------------------------------------------------------------------------------------
0	0.000000e+00	1.696921e-08	8.484607e-09	9.999996e-01	8.484607e-09	1.000000e+00	1.000000e+00	1.000000e+00	0.000000e+00	0.000000e+00	1.000000e+00	1.000000e+00	0.000000e+00	1.000000e+00	
1	1.000000e-13	4.317550e-06	5.702908e-06	1.000005e+00	1.328653e-06	9.999965e-01	1.000000e+00	1.000000e+00	1.471257e-05	1.471257e-05	9.999999e-01	1.000000e+00	1.000000e-13	1.000000e+00	
2	2.000000e-13	3.542111e-06	5.686646e-06	1.000009e+00	1.600266e-06	9.999935e-01	1.000001e+00	1.000001e+00	2.465971e-05	2.465971e-05	9.999998e-01	1.000000e+00	2.000000e-13	1.000000e+00	
3	4.000000e-13	2.467696e-06	4.263166e-06	1.000013e+00	1.480160e-06	9.999878e-01	1.000002e+00	1.000002e+00	4.090796e-05	4.090796e-05	9.999995e-01	1.000000e+00	4.000000e-13	1.000000e+00	
4	8.000000e-13	1.322302e-06	2.011140e-06	1.000016e+00	6.696601e-07	9.999786e-01	1.000004e+00	1.000004e+00	6.094291e-05	6.094291e-05	9.999983e-01	1.000000e+00	8.000000e-13	1.000000e+00	
5	1.600000e-12	3.230754e-07	6.606256e-07	1.000014e+00	2.232106e-07	9.999656e-01	1.000007e+00	1.000007e+00	7.841286e-05	7.841286e-05	9.999950e-01	1.000000e+00	1.600000e-12	1.000000e+00	
6	3.200000e-12	5.630310e-08	-6.892347e-08	1.000008e+00	-1.481267e-08	9.999514e-01	1.000006e+00	1.000006e+00	8.586660e-05	8.586660e-05	9.999873e-01	9.999996e-01	3.200000e-12	1.000000e+00	
7	6.400000e-12	-1.568756e-08	9.431973e-08	1.000001e+00	3.323228e-08	9.999401e-01	1.000000e+00	1.000000e+00	8.623658e-05	8.623658e-05	9.999748e-01	9.999938e-01	6.400000e-12	1.000000e+00	
8	1.280000e-11	4.759674e-08	-7.892264e-08	9.999879e-01	-1.630430e-08	9.999321e-01	9.999865e-01	9.999865e-01	8.601783e-05	8.601783e-05	9.999594e-01	9.999785e-01	1.280000e-11	1.000000e+00	
9	2.280000e-11	-1.284467e-08	9.667558e-08	9.999668e-01	3.305953e-08	9.999259e-01	9.999657e-01	9.999657e-01	8.624138e-05	8.624138e-05	9.999455e-01	9.999595e-01	2.280000e-11	1.000000e+00	
10	3.280000e-11	4.802093e-08	-7.656221e-08	9.999506e-01	-1.486866e-08	9.999218e-01	9.999499e-01	9.999499e-01	8.638943e-05	8.638943e-05	9.999358e-01	9.999458e-01	3.280000e-11	1.000000e+00	
11	4.280000e-11	-1.319387e-08	9.431630e-08	9.999389e-01	3.169658e-08	9.999187e-01	9.999385e-01	9.999385e-01	8.660364e-05	8.660364e-05	9.999287e-01	9.999357e-01	4.280000e-11	1.000000e+00	
12	5.280000e-11	4.759772e-08	-7.556606e-08	9.999303e-01	-1.392097e-08	9.999165e-01	9.999302e-01	9.999302e-01	8.663075e-05	8.663075e-05	9.999235e-01	9.999284e-01	5.280000e-11	1.000000e+00	
13	6.280000e-11	-1.308416e-08	9.274526e-08	9.999241e-01	3.061764e-08	9.999148e-01	9.999241e-01	9.999241e-01	8.678919e-05	8.678919e-05	9.999198e-01	9.999230e-01	6.280000e-11	1.000000e+00	
14	7.280000e-11	4.714276e-08	-7.461600e-08	9.999195e-01	-1.303931e-08	9.999137e-01	9.999196e-01	9.999196e-01	8.676178e-05	8.676178e-05	9.999170e-01	9.999191e-01	7.280000e-11	1.000000e+00	
15	8.280000e-11	-1.281770e-08	9.145689e-08	9.999162e-01	2.966479e-08	9.999128e-01	9.999164e-01	9.999164e-01	8.688693e-05	8.688693e-05	9.999150e-01	9.999163e-01	8.280000e-11	1.000000e+00	
16	9.280000e-11	4.670219e-08	-7.364559e-08	9.999137e-01	-1.219610e-08	9.999122e-01	9.999140e-01	9.999140e-01	8.683240e-05	8.683240e-05	9.999135e-01	9.999142e-01	9.280000e-11	1.000000e+00	
17	1.028000e-10	-1.248330e-08	9.030007e-08	9.999120e-01	2.879010e-08	9.999117e-01	9.999123e-01	9.999123e-01	8.693846e-05	8.693846e-05	9.999124e-01	9.999127e-01	1.028000e-10	1.000000e+00	
18	1.128000e-10	4.627866e-08	-7.265552e-08	9.999107e-01	-1.138716e-08	9.999114e-01	9.999110e-01	9.999110e-01	8.687053e-05	8.687053e-05	9.999116e-01	9.999116e-01	1.128000e-10	1.000000e+00	
19	1.228000e-10	-1.211901e-08	8.920959e-08	9.999097e-01	2.797200e-08	9.999111e-01	9.999101e-01	9.999101e-01	8.696550e-05	8.696550e-05	9.999111e-01	9.999108e-01	1.228000e-10	1.000000e+00	
20	1.328000e-10	4.586891e-08	-7.165391e-08	9.999090e-01	-1.061182e-08	9.999109e-01	9.999094e-01	9.999094e-01	8.689125e-05	8.689125e-05	9.999106e-01	9.999102e-01	1.328000e-10	1.000000e+00	
21	1.428000e-10	-1.174255e-08	8.815507e-08	9.999086e-01	2.719949e-08	9.999108e-01	9.999089e-01	9.999089e-01	8.697955e-05	8.697955e-05	9.999103e-01	9.999097e-01	1.428000e-10	1.000000e+00	
22	1.528000e-10	4.546966e-08	-7.064783e-08	9.999081e-01	-9.869749e-09	9.999107e-01	9.999086e-01	9.999086e-01	8.690264e-05	8.690264e-05	9.999101e-01	9.999094e-01	1.528000e-10	1.000000e+00	
23	1.628000e-10	-1.136230e-08	8.712217e-08	9.999079e-01	2.646646e-08	9.999106e-01	9.999083e-01	9.999083e-01	8.698670e-05	8.698670e-05	9.999099e-01	9.999092e-01	1.628000e-10	1.000000e+00	
24	1.728000e-10	4.507838e-08	-6.964238e-08	9.999077e-01	-9.160380e-09	9.999106e-01	9.999081e-01	9.999081e-01	8.690904e-05	8.690904e-05	9.999098e-01	9.999090e-01	1.728000e-10	1.000000e+00	
25	1.828000e-10	-1.098217e-08	8.610426e-08	9.999076e-01	2.576921e-08	9.999105e-01	9.999080e-01	9.999080e-01	8.699020e-05	8.699020e-05	9.999097e-01	9.999089e-01	1.828000e-10	1.000000e+00	
26	1.928000e-10	4.469330e-08	-6.864112e-08	9.999074e-01	-8.482889e-09	9.999105e-01	9.999079e-01	9.999079e-01	8.691276e-05	8.691276e-05	9.999097e-01	9.999088e-01	1.928000e-10	1.000000e+00	
27	2.000000e-10	-1.053011e-08	8.490516e-08	9.999074e-01	2.498000e-08	9.999105e-01	9.999078e-01	9.999078e-01	8.699141e-05	8.699141e-05	9.999096e-01	9.999087e-01	2.000000e-10	1.000000e+00	
28	2.010000e-10	2.426561e-08	2.186092e-08	9.999086e-01	1.289284e-08	1.000318e+00	9.999099e-01	9.999099e-01	8.717591e-05	8.717591e-05	9.999691e-01	9.999175e-01	2.010000e-10	1.000000e+00	
29	2.030000e-10	5.901644e-08	7.263791e-08	9.999176e-01	2.781018e-08	1.001245e+00	9.999239e-01	9.999239e-01	8.857172e-05	8.857172e-05	1.000193e+00	9.999641e-01	2.030000e-10	1.000000e+00	
30	2.070000e-10	1.344208e-07	1.953143e-07	1.000015e+00	6.765572e-08	1.002344e+00	1.000047e+00	1.000047e+00	9.740892e-05	9.740892e-05	1.000861e+00	1.000224e+00	2.070000e-10	1.000000e+00	
31	2.150000e-10	4.172124e-08	4.042747e-08	1.000514e+00	2.114645e-08	1.002421e+00	1.000582e+00	1.000582e+00	1.122848e-04	1.122848e-04	1.001614e+00	1.000903e+00	2.150000e-10	1.000000e+00	
32	2.250000e-10	-1.195474e-07	-2.113131e-07	1.001053e+00	-5.905095e-08	1.000351e+00	1.001074e+00	1.001074e+00	9.524161e-05	9.524161e-05	1.001069e+00	1.001145e+00	2.250000e-10	1.000000e+00	
33	2.350000e-10	-2.692871e-07	-4.381747e-07	1.000318e+00	-1.344185e-07	9.918915e-01	1.000183e+00	1.000183e+00	3.711578e-05	3.711578e-05	9.972674e-01	9.994829e-01	2.350000e-10	1.000000e+00	
34	2.450000e-10	2.366721e-07	-7.150150e-07	9.961083e-01	1.149746e-07	9.683872e-01	9.955795e-01	9.955795e-01	-1.078004e-04	-1.078004e-04	9.851288e-01	9.928921e-01	2.450000e-10	1.000000e+00	
35	2.550000e-10	3.299369e-07	-1.349578e-06	9.841404e-01	1.676672e-07	9.196856e-01	9.827756e-01	9.827756e-01	-4.071164e-04	-4.071164e-04	9.572625e-01	9.759514e-01	2.550000e-10	1.000000e+00	
36	2.650000e-10	4.230800e-07	-2.144105e-06	9.576397e-01	2.083298e-07	8.306129e-01	9.548006e-01	9.548006e-01	-9.001623e-04	-9.001623e-04	9.032312e-01	9.407062e-01	2.650000e-10	1.000000e+00	
37	2.750000e-10	-1.105479e-07	-1.906738e-06	9.074200e-01	-4.882976e-08	6.879303e-01	9.022792e-01	9.022791e-01	-1.434910e-03	-1.434910e-03	8.109574e-01	8.768541e-01	2.750000e-10	1.000000e+00	
38	2.850000e-10	-4.466549e-06	1.070658e-05	8.249955e-01	-2.212508e-06	5.051713e-01	8.169102e-01	8.169101e-01	-1.204192e-05	-1.204192e-05	6.787859e-01	7.773595e-01	2.850000e-10	1.000000e+00	
39	2.950000e-10	1.019864e-04	1.697468e-04	7.102408e-01	5.031189e-05	3.116439e-01	6.991626e-01	6.991625e-01	1.696200e-02	1.696200e-02	5.204582e-01	6.459858e-01	2.950000e-10	1.000000e+00	
40	3.050000e-10	1.053299e-04	5.650436e-04	5.777685e-01	5.330860e-05	1.750963e-01	5.642164e-01	5.642163e-01	9.960815e-02	9.960815e-02	3.718318e-01	5.032277e-01	3.050000e-10	1.000000e+00	
41	3.150000e-10	4.219234e-04	2.118236e-03	4.626928e-01	2.083679e-04	1.132997e-01	4.440495e-01	4.440495e-01	4.406753e-01	4.406753e-01	2.670307e-01	3.813002e-01	3.150000e-10	1.000000e+00	
42	3.250000e-10	1.853128e-04	9.216820e-04	3.551215e-01	9.665517e-05	8.039180e-02	3.468639e-01	3.468639e-01	8.658198e-01	8.658198e-01	2.000659e-01	2.922366e-01	3.250000e-10	1.000000e+00	
43	3.260000e-10	1.517945e-04	8.127962e-04	3.460098e-01	7.712532e-05	7.768622e-02	3.375252e-01	3.375252e-01	8.898644e-01	8.898644e-01	1.946837e-01	2.847703e-01	3.260000e-10	1.000000e+00	
44	3.280000e-10	5.244911e-05	3.890874e-04	3.260488e-01	2.808048e-05	7.243005e-02	3.184685e-01	3.184684e-01	9.257057e-01	9.257057e-01	1.841157e-01	2.698720e-01	3.280000e-10	1.000000e+00	
45	3.320000e-10	6.962934e-06	1.580035e-04	2.862798e-01	2.431937e-06	6.373926e-02	2.808829e-01	2.808828e-01	9.598331e-01	9.598331e-01	1.641480e-01	2.405669e-01	3.320000e-10	1.000000e+00	
46	3.400000e-10	-1.641876e-05	2.761008e-05	2.205914e-01	-7.011399e-06	4.999377e-02	2.170740e-01	2.170740e-01	9.851282e-01	9.851282e-01	1.289458e-01	1.878848e-01	3.400000e-10	1.000000e+00	
47	3.500000e-10	-1.403221e-05	9.910359e-06	1.594806e-01	-8.199145e-06	3.609494e-02	1.572012e-01	1.572012e-01	9.939464e-01	9.939464e-01	9.380243e-02	1.363796e-01	3.500000e-10	1.000000e+00	
48	3.600000e-10	-1.431693e-05	-7.285338e-06	1.153174e-01	-6.003041e-06	2.601365e-02	1.136314e-01	1.136314e-01	9.967465e-01	9.967465e-01	6.778908e-02	9.868151e-02	3.600000e-10	1.000000e+00	
49	3.700000e-10	-8.061080e-06	3.257534e-06	8.324738e-02	-5.196112e-06	1.868953e-02	8.212163e-02	8.212162e-02	9.979585e-01	9.979585e-01	4.895593e-02	7.127216e-02	3.700000e-10	1.000000e+00	
50	3.800000e-10	-8.621905e-06	-7.524610e-06	6.013216e-02	-3.170850e-06	1.348913e-02	5.925909e-02	5.925908e-02	9.986314e-01	9.986314e-01	3.531865e-02	5.146105e-02	3.800000e-10	1.000000e+00	
51	3.900000e-10	-3.812147e-06	3.583435e-06	4.334958e-02	-3.047724e-06	9.709471e-03	4.278592e-02	4.278591e-02	9.990244e-01	9.990244e-01	2.549070e-02	3.713110e-02	3.900000e-10	1.000000e+00	
52	4.000000e-10	-5.156064e-06	-6.348439e-06	3.131760e-02	-1.456394e-06	7.025296e-03	3.085722e-02	3.085722e-02	9.993030e-01	9.993030e-01	1.839103e-02	2.679792e-02	4.000000e-10	1.000000e+00	
53	4.100000e-10	-1.484138e-06	3.977477e-06	2.256058e-02	-1.858649e-06	5.070703e-03	2.227956e-02	2.227956e-02	9.994726e-01	9.994726e-01	1.327982e-02	1.933657e-02	4.100000e-10	1.000000e+00	
54	4.200000e-10	-3.230382e-06	-5.476356e-06	1.631695e-02	-5.155024e-07	3.683212e-03	1.607087e-02	1.607087e-02	9.996072e-01	9.996072e-01	9.590709e-03	1.396146e-02	4.200000e-10	1.000000e+00	
55	4.300000e-10	-2.798909e-07	4.138400e-06	1.175194e-02	-1.230640e-06	2.670703e-03	1.161407e-02	1.161407e-02	9.996869e-01	9.996869e-01	6.936024e-03	1.008340e-02	4.300000e-10	1.000000e+00	
56	4.400000e-10	-2.170053e-06	-4.892185e-06	8.520189e-03	-9.686406e-09	1.952186e-03	8.386372e-03	8.386371e-03	9.997569e-01	9.997569e-01	5.020484e-03	7.291184e-03	4.400000e-10	1.000000e+00	
57	4.500000e-10	3.205270e-07	4.139382e-06	6.139424e-03	-9.038318e-07	1.427137e-03	6.073669e-03	6.073668e-03	9.997948e-01	9.997948e-01	3.642426e-03	5.277256e-03	4.500000e-10	1.000000e+00	
58	4.600000e-10	-1.582664e-06	-4.494428e-06	4.470529e-03	2.581503e-07	1.054844e-03	4.396203e-03	4.396203e-03	9.998325e-01	9.998325e-01	2.648184e-03	3.827742e-03	4.600000e-10	1.000000e+00	
59	4.700000e-10	6.064565e-07	4.060844e-06	3.227001e-03	-7.337795e-07	7.824170e-04	3.197233e-03	3.197232e-03	9.998502e-01	9.998502e-01	1.933042e-03	2.782307e-03	4.700000e-10	1.000000e+00	
60	4.800000e-10	-1.250600e-06	-4.209354e-06	2.367663e-03	3.974811e-07	5.894725e-04	2.325277e-03	2.325277e-03	9.998711e-01	9.998711e-01	1.417088e-03	2.030111e-03	4.800000e-10	1.000000e+00	
61	4.900000e-10	7.320871e-07	3.948245e-06	1.716397e-03	-6.436443e-07	4.480687e-04	1.704264e-03	1.704264e-03	9.998789e-01	9.998789e-01	1.046026e-03	1.487515e-03	4.900000e-10	1.000000e+00	
62	5.000000e-10	-1.056436e-06	-3.992231e-06	1.275697e-03	4.674960e-07	3.480692e-04	1.250743e-03	1.250743e-03	9.998908e-01	9.998908e-01	7.782999e-04	1.097273e-03	5.000000e-10	1.000000e+00	
63	5.100000e-10	7.777543e-07	3.824649e-06	9.332063e-04	-5.934940e-07	2.746522e-04	9.294429e-04	9.294429e-04	9.998939e-01	9.998939e-01	5.857871e-04	8.156668e-04	5.100000e-10	1.000000e+00	
64	5.200000e-10	-9.374168e-07	-3.817111e-06	7.085454e-04	4.999121e-07	2.228298e-04	6.933075e-04	6.933074e-04	9.999009e-01	9.999009e-01	4.468695e-04	6.132468e-04	5.200000e-10	1.000000e+00	
65	5.300000e-10	7.846863e-07	3.700928e-06	5.273438e-04	-5.629113e-07	1.847002e-04	5.273255e-04	5.273255e-04	9.999017e-01	9.999017e-01	3.469972e-04	4.670843e-04	5.300000e-10	1.000000e+00	
66	5.400000e-10	-8.600228e-07	-3.669007e-06	4.138493e-04	5.117283e-07	1.578511e-04	4.041732e-04	4.041731e-04	9.999060e-01	9.999060e-01	2.749159e-04	3.621091e-04	5.400000e-10	1.000000e+00	
67	5.500000e-10	7.737438e-07	3.581734e-06	3.171524e-04	-5.416209e-07	1.380403e-04	3.186176e-04	3.186176e-04	9.999059e-01	9.999059e-01	2.231064e-04	2.862346e-04	5.500000e-10	1.000000e+00	
68	5.600000e-10	-8.062505e-07	-3.539134e-06	2.606182e-04	5.121158e-07	1.241363e-04	2.542304e-04	2.542304e-04	9.999086e-01	9.999086e-01	1.857043e-04	2.318080e-04	5.600000e-10	1.000000e+00	
69	5.700000e-10	7.552965e-07	3.468688e-06	2.083957e-04	-5.245556e-07	1.138367e-04	2.102762e-04	2.102762e-04	9.999081e-01	9.999081e-01	1.588292e-04	1.924107e-04	5.700000e-10	1.000000e+00	
70	5.800000e-10	-7.663222e-07	-3.422201e-06	1.808605e-04	5.060815e-07	1.066425e-04	1.764898e-04	1.764898e-04	9.999099e-01	9.999099e-01	1.394208e-04	1.642018e-04	5.800000e-10	1.000000e+00	
71	5.900000e-10	7.343632e-07	3.362009e-06	1.521987e-04	-5.092916e-07	1.012819e-04	1.540211e-04	1.540211e-04	9.999093e-01	9.999093e-01	1.254808e-04	1.437369e-04	5.900000e-10	1.000000e+00	
72	6.000000e-10	-7.348370e-07	-3.314904e-06	1.392814e-04	4.964071e-07	9.756502e-05	1.361975e-04	1.361975e-04	9.999105e-01	9.999105e-01	1.154090e-04	1.291238e-04	6.000000e-10	1.000000e+00	
73	6.100000e-10	7.132660e-07	3.261328e-06	1.232187e-04	-4.947280e-07	9.476973e-05	1.247998e-04	1.247998e-04	9.999099e-01	9.999099e-01	1.081789e-04	1.184871e-04	6.100000e-10	1.000000e+00	
74	6.200000e-10	-7.087425e-07	-3.215101e-06	1.175554e-04	4.846729e-07	9.285457e-05	1.153247e-04	1.153246e-04	9.999108e-01	9.999108e-01	1.029517e-04	1.109227e-04	6.200000e-10	1.000000e+00	
75	6.300000e-10	6.929906e-07	3.166072e-06	1.083192e-04	-4.804119e-07	9.139196e-05	1.096120e-04	1.096120e-04	9.999103e-01	9.999103e-01	9.920226e-05	1.053893e-04	6.300000e-10	1.000000e+00	
76	6.400000e-10	-6.862615e-07	-3.121340e-06	1.061646e-04	4.718014e-07	9.041011e-05	1.045198e-04	1.045198e-04	9.999110e-01	9.999110e-01	9.648901e-05	1.014779e-04	6.400000e-10	1.000000e+00	
77	6.500000e-10	6.738781e-07	3.075641e-06	1.006939e-04	-4.661968e-07	8.964009e-05	1.017112e-04	1.017112e-04	9.999105e-01	9.999105e-01	9.454492e-05	9.859566e-05	6.500000e-10	1.000000e+00	
78	6.600000e-10	-6.663212e-07	-3.032595e-06	1.001628e-04	4.583482e-07	8.914145e-05	9.893283e-05	9.893282e-05	9.999110e-01	9.999110e-01	9.313626e-05	9.657650e-05	6.600000e-10	1.000000e+00	
79	6.700000e-10	6.559730e-07	2.989483e-06	9.681886e-05	-4.520728e-07	8.873159e-05	9.759576e-05	9.759575e-05	9.999107e-01	9.999107e-01	9.212852e-05	9.507229e-05	6.700000e-10	1.000000e+00	
80	6.800000e-10	-6.482484e-07	-2.948125e-06	9.697791e-05	4.446579e-07	8.848292e-05	9.604867e-05	9.604867e-05	9.999110e-01	9.999110e-01	9.139694e-05	9.403253e-05	6.800000e-10	1.000000e+00	
81	6.900000e-10	6.391951e-07	2.907122e-06	9.487098e-05	-4.380832e-07	8.826055e-05	9.544797e-05	9.544796e-05	9.999107e-01	9.999107e-01	9.087478e-05	9.324528e-05	6.900000e-10	1.000000e+00	
82	7.000000e-10	-6.316023e-07	-2.867367e-06	9.527057e-05	4.309506e-07	8.814101e-05	9.456350e-05	9.456350e-05	9.999110e-01	9.999110e-01	9.049464e-05	9.271187e-05	7.000000e-10	1.000000e+00	
83	7.100000e-10	6.234217e-07	2.828153e-06	9.390874e-05	-4.242854e-07	8.801641e-05	9.432387e-05	9.432387e-05	9.999108e-01	9.999108e-01	9.022426e-05	9.229813e-05	7.100000e-10	1.000000e+00	
84	7.200000e-10	-6.160825e-07	-2.789892e-06	9.434229e-05	4.173704e-07	8.796340e-05	9.380160e-05	9.380160e-05	9.999110e-01	9.999110e-01	9.002658e-05	9.202606e-05	7.200000e-10	1.000000e+00	
85	7.300000e-10	6.085259e-07	2.752239e-06	9.344689e-05	-4.107344e-07	8.788996e-05	9.373310e-05	9.373310e-05	9.999108e-01	9.999108e-01	8.988672e-05	9.180731e-05	7.300000e-10	1.000000e+00	
86	7.400000e-10	-6.014770e-07	-2.715360e-06	9.382786e-05	4.040126e-07	8.787106e-05	9.341299e-05	9.341299e-05	9.999110e-01	9.999110e-01	8.978379e-05	9.166976e-05	7.400000e-10	1.000000e+00	
87	7.500000e-10	5.943916e-07	2.679100e-06	9.323612e-05	-3.974758e-07	8.782454e-05	9.342073e-05	9.342073e-05	9.999109e-01	9.999109e-01	8.971156e-05	9.155311e-05	7.500000e-10	1.000000e+00	
88	7.600000e-10	-5.876309e-07	-2.643500e-06	9.353561e-05	3.909410e-07	8.782298e-05	9.321655e-05	9.321654e-05	9.999109e-01	9.999109e-01	8.965787e-05	9.148453e-05	7.600000e-10	1.000000e+00	
89	7.700000e-10	5.809190e-07	2.608504e-06	9.314907e-05	-3.845445e-07	8.779076e-05	9.325413e-05	9.325413e-05	9.999109e-01	9.999109e-01	8.962066e-05	9.142156e-05	7.700000e-10	1.000000e+00	
90	7.800000e-10	-5.744290e-07	-2.574090e-06	9.336440e-05	3.781973e-07	8.779787e-05	9.311863e-05	9.311862e-05	9.999109e-01	9.999109e-01	8.959256e-05	9.138814e-05	7.800000e-10	1.000000e+00	
91	7.900000e-10	5.680248e-07	2.540256e-06	9.312110e-05	-3.719653e-07	8.777340e-05	9.316417e-05	9.316417e-05	9.999109e-01	9.999109e-01	8.957347e-05	9.135356e-05	7.900000e-10	1.000000e+00	
92	8.000000e-10	-5.617829e-07	-2.506949e-06	9.326047e-05	3.658080e-07	8.778469e-05	9.307093e-05	9.307093e-05	9.999109e-01	9.999109e-01	8.955870e-05	9.133790e-05	8.000000e-10	1.000000e+00	
93	8.100000e-10	5.556406e-07	2.474195e-06	9.311986e-05	-3.597545e-07	8.776454e-05	9.311477e-05	9.311477e-05	9.999109e-01	9.999109e-01	8.954898e-05	9.131849e-05	8.100000e-10	1.000000e+00	
94	8.200000e-10	-5.496244e-07	-2.441925e-06	9.319492e-05	3.537890e-07	8.777771e-05	9.304860e-05	9.304859e-05	9.999109e-01	9.999109e-01	8.954114e-05	9.131166e-05	8.200000e-10	1.000000e+00	
95	8.300000e-10	5.437103e-07	2.410180e-06	9.312941e-05	-3.479214e-07	8.776009e-05	9.308701e-05	9.308701e-05	9.999109e-01	9.999109e-01	8.953626e-05	9.130045e-05	8.300000e-10	1.000000e+00	
96	8.400000e-10	-5.378997e-07	-2.378886e-06	9.315197e-05	3.421484e-07	8.777394e-05	9.303888e-05	9.303888e-05	9.999109e-01	9.999109e-01	8.953205e-05	9.129792e-05	8.400000e-10	1.000000e+00	
97	8.500000e-10	5.321886e-07	2.348094e-06	9.314220e-05	-3.364696e-07	8.775792e-05	9.307096e-05	9.307096e-05	9.999109e-01	9.999109e-01	8.952964e-05	9.129120e-05	8.500000e-10	1.000000e+00	
98	8.600000e-10	-5.265656e-07	-2.317723e-06	9.312283e-05	3.308884e-07	8.777186e-05	9.303530e-05	9.303530e-05	9.999109e-01	9.999109e-01	8.952734e-05	9.129068e-05	8.600000e-10	1.000000e+00	
99	8.700000e-10	5.210379e-07	2.287831e-06	9.315482e-05	-3.253988e-07	8.775692e-05	9.306134e-05	9.306134e-05	9.999109e-01	9.999109e-01	8.952621e-05	9.128650e-05	8.700000e-10	1.000000e+00	
100	8.800000e-10	-5.155877e-07	-2.258338e-06	9.310249e-05	3.200073e-07	8.777064e-05	9.303458e-05	9.303458e-05	9.999109e-01	9.999109e-01	8.952490e-05	9.128684e-05	8.800000e-10	1.000000e+00	
101	8.900000e-10	5.102280e-07	2.229303e-06	9.316592e-05	-3.147050e-07	8.775653e-05	9.305535e-05	9.305534e-05	9.999109e-01	9.999109e-01	8.952442e-05	9.128413e-05	8.900000e-10	1.000000e+00	
102	9.000000e-10	-5.049377e-07	-2.200646e-06	9.308798e-05	3.095001e-07	8.776989e-05	9.303510e-05	9.303509e-05	9.999109e-01	9.999109e-01	8.952364e-05	9.128479e-05	9.000000e-10	1.000000e+00	
103	9.100000e-10	4.997332e-07	2.172428e-06	9.317512e-05	-3.043822e-07	8.775645e-05	9.305145e-05	9.305144e-05	9.999110e-01	9.999110e-01	8.952348e-05	9.128296e-05	9.100000e-10	1.000000e+00	
104	9.200000e-10	-4.945920e-07	-2.144570e-06	9.307748e-05	2.993601e-07	8.776938e-05	9.303607e-05	9.303606e-05	9.999109e-01	9.999109e-01	8.952300e-05	9.128368e-05	9.200000e-10	1.000000e+00	
105	9.300000e-10	4.895323e-07	2.117134e-06	9.318244e-05	-2.944226e-07	8.775653e-05	9.304880e-05	9.304880e-05	9.999110e-01	9.999110e-01	8.952300e-05	9.128239e-05	9.300000e-10	1.000000e+00	
106	9.400000e-10	-4.845312e-07	-2.090041e-06	9.306984e-05	2.895788e-07	8.776900e-05	9.303711e-05	9.303711e-05	9.999109e-01	9.999109e-01	8.952266e-05	9.128306e-05	9.400000e-10	1.000000e+00	
107	9.500000e-10	4.796077e-07	2.063356e-06	9.318813e-05	-2.848169e-07	8.775668e-05	9.304695e-05	9.304695e-05	9.999110e-01	9.999110e-01	8.952274e-05	9.128213e-05	9.500000e-10	1.000000e+00	
108	9.600000e-10	-4.747388e-07	-2.036999e-06	9.306428e-05	2.801464e-07	8.776869e-05	9.303809e-05	9.303809e-05	9.999109e-01	9.999109e-01	8.952249e-05	9.128271e-05	9.600000e-10	1.000000e+00	
109	9.700000e-10	4.699440e-07	2.011034e-06	9.319240e-05	-2.755553e-07	8.775688e-05	9.304560e-05	9.304559e-05	9.999110e-01	9.999110e-01	8.952260e-05	9.128202e-05	9.700000e-10	1.000000e+00	
110	9.800000e-10	-4.652003e-07	-1.985384e-06	9.306028e-05	2.710529e-07	8.776842e-05	9.303894e-05	9.303894e-05	9.999109e-01	9.999109e-01	8.952241e-05	9.128251e-05	9.800000e-10	1.000000e+00	
111	9.900000e-10	4.605279e-07	1.960113e-06	9.319555e-05	-2.666273e-07	8.775708e-05	9.304459e-05	9.304459e-05	9.999110e-01	9.999110e-01	8.952253e-05	9.128199e-05	9.900000e-10	1.000000e+00	
112	1.000000e-09	-4.559038e-07	-1.935144e-06	9.305747e-05	2.622877e-07	8.776817e-05	9.303966e-05	9.303965e-05	9.999109e-01	9.999109e-01	8.952237e-05	9.128239e-05	1.000000e-09	1.000000e+00	
113	1.010000e-09	4.513482e-07	1.910543e-06	9.319776e-05	-2.580221e-07	8.775729e-05	9.304383e-05	9.304383e-05	9.999110e-01	9.999110e-01	8.952249e-05	9.128199e-05	1.010000e-09	1.000000e+00	
114	1.020000e-09	-4.468384e-07	-1.886232e-06	9.305557e-05	2.538398e-07	8.776794e-05	9.304024e-05	9.304024e-05	9.999109e-01	9.999109e-01	8.952235e-05	9.128231e-05	1.020000e-09	1.000000e+00	
115	1.030000e-09	4.423947e-07	1.862276e-06	9.319922e-05	-2.497288e-07	8.775750e-05	9.304324e-05	9.304324e-05	9.999110e-01	9.999110e-01	8.952247e-05	9.128199e-05	1.030000e-09	1.000000e+00	
116	1.040000e-09	-4.379944e-07	-1.838599e-06	9.305437e-05	2.456984e-07	8.776772e-05	9.304072e-05	9.304072e-05	9.999109e-01	9.999109e-01	8.952234e-05	9.128226e-05	1.040000e-09	1.000000e+00	
117	1.050000e-09	4.336581e-07	1.815266e-06	9.320009e-05	-2.417366e-07	8.775771e-05	9.304277e-05	9.304277e-05	9.999110e-01	9.999110e-01	8.952245e-05	9.128201e-05	1.050000e-09	1.000000e+00	
118	1.060000e-09	-4.293631e-07	-1.792202e-06	9.305374e-05	2.378528e-07	8.776752e-05	9.304111e-05	9.304111e-05	9.999109e-01	9.999109e-01	8.952233e-05	9.128222e-05	1.060000e-09	1.000000e+00	
119	1.070000e-09	4.251302e-07	1.769472e-06	9.320048e-05	-2.340348e-07	8.775791e-05	9.304241e-05	9.304240e-05	9.999110e-01	9.999110e-01	8.952245e-05	9.128203e-05	1.070000e-09	1.000000e+00	
120	1.080000e-09	-4.209368e-07	-1.747001e-06	9.305354e-05	2.302921e-07	8.776732e-05	9.304143e-05	9.304143e-05	9.999109e-01	9.999109e-01	8.952233e-05	9.128220e-05	1.080000e-09	1.000000e+00	
121	1.090000e-09	4.168038e-07	1.724855e-06	9.320049e-05	-2.266126e-07	8.775810e-05	9.304211e-05	9.304211e-05	9.999110e-01	9.999110e-01	8.952244e-05	9.128204e-05	1.090000e-09	1.000000e+00	
122	1.100000e-09	-4.127084e-07	-1.702957e-06	9.305369e-05	2.230059e-07	8.776712e-05	9.304169e-05	9.304169e-05	9.999109e-01	9.999109e-01	8.952233e-05	9.128218e-05	1.100000e-09	1.000000e+00	
123	1.110000e-09	4.086716e-07	1.681376e-06	9.320018e-05	-2.194598e-07	8.775829e-05	9.304187e-05	9.304187e-05	9.999110e-01	9.999110e-01	8.952244e-05	9.128205e-05	1.110000e-09	1.000000e+00	
124	1.120000e-09	-4.046710e-07	-1.660033e-06	9.305412e-05	2.159840e-07	8.776693e-05	9.304190e-05	9.304190e-05	9.999109e-01	9.999109e-01	8.952234e-05	9.128216e-05	1.120000e-09	1.000000e+00	
125	1.130000e-09	4.007275e-07	1.638998e-06	9.319963e-05	-2.125663e-07	8.775848e-05	9.304168e-05	9.304168e-05	9.999110e-01	9.999110e-01	8.952243e-05	9.128206e-05	1.130000e-09	1.000000e+00	
126	1.140000e-09	-3.968186e-07	-1.618194e-06	9.305478e-05	2.092164e-07	8.776675e-05	9.304208e-05	9.304207e-05	9.999109e-01	9.999109e-01	8.952234e-05	9.128215e-05	1.140000e-09	1.000000e+00	
127	1.150000e-09	3.929654e-07	1.597689e-06	9.319888e-05	-2.059222e-07	8.775865e-05	9.304152e-05	9.304151e-05	9.999110e-01	9.999110e-01	8.952243e-05	9.128207e-05	1.150000e-09	1.000000e+00	
128	1.160000e-09	-3.891455e-07	-1.577406e-06	9.305561e-05	2.026934e-07	8.776658e-05	9.304222e-05	9.304222e-05	9.999109e-01	9.999109e-01	8.952234e-05	9.128215e-05	1.160000e-09	1.000000e+00	
129	1.170000e-09	3.853798e-07	1.557414e-06	9.319796e-05	-1.995181e-07	8.775883e-05	9.304138e-05	9.304138e-05	9.999110e-01	9.999110e-01	8.952243e-05	9.128208e-05	1.170000e-09	1.000000e+00	
130	1.180000e-09	-3.816460e-07	-1.537637e-06	9.305660e-05	1.964058e-07	8.776641e-05	9.304234e-05	9.304234e-05	9.999109e-01	9.999109e-01	8.952234e-05	9.128214e-05	1.180000e-09	1.000000e+00	
131	1.190000e-09	3.779652e-07	1.518142e-06	9.319691e-05	-1.933447e-07	8.775899e-05	9.304127e-05	9.304127e-05	9.999110e-01	9.999110e-01	8.952243e-05	9.128208e-05	1.190000e-09	1.000000e+00	
132	1.200000e-09	-3.743150e-07	-1.498855e-06	9.305771e-05	1.903445e-07	8.776625e-05	9.304244e-05	9.304244e-05	9.999109e-01	9.999109e-01	8.952234e-05	9.128213e-05	1.200000e-09	1.000000e+00	
133	1.210000e-09	3.707168e-07	1.479843e-06	9.319575e-05	-1.873932e-07	8.775915e-05	9.304119e-05	9.304118e-05	9.999110e-01	9.999110e-01	8.952243e-05	9.128209e-05	1.210000e-09	1.000000e+00	
134	1.220000e-09	-3.671480e-07	-1.461032e-06	9.305892e-05	1.845007e-07	8.776609e-05	9.304252e-05	9.304252e-05	9.999109e-01	9.999109e-01	8.952234e-05	9.128213e-05	1.220000e-09	1.000000e+00	
135	1.230000e-09	3.636298e-07	1.442489e-06	9.319450e-05	-1.816550e-07	8.775931e-05	9.304111e-05	9.304110e-05	9.999110e-01	9.999110e-01	8.952242e-05	9.128209e-05	1.230000e-09	1.000000e+00	
136	1.240000e-09	-3.601400e-07	-1.424139e-06	9.306021e-05	1.788660e-07	8.776593e-05	9.304260e-05	9.304259e-05	9.999109e-01	9.999109e-01	8.952235e-05	9.128213e-05	1.240000e-09	1.000000e+00	
137	1.250000e-09	3.566996e-07	1.406051e-06	9.319317e-05	-1.761218e-07	8.775946e-05	9.304104e-05	9.304104e-05	9.999110e-01	9.999110e-01	8.952242e-05	9.128209e-05	1.250000e-09	1.000000e+00	
138	1.260000e-09	-3.532866e-07	-1.388149e-06	9.306156e-05	1.734324e-07	8.776578e-05	9.304266e-05	9.304265e-05	9.999109e-01	9.999109e-01	8.952235e-05	9.128212e-05	1.260000e-09	1.000000e+00	
139	1.270000e-09	3.499220e-07	1.370502e-06	9.319178e-05	-1.707858e-07	8.775961e-05	9.304098e-05	9.304098e-05	9.999110e-01	9.999110e-01	8.952242e-05	9.128209e-05	1.270000e-09	1.000000e+00	
140	1.280000e-09	-3.465835e-07	-1.353035e-06	9.306298e-05	1.681920e-07	8.776564e-05	9.304271e-05	9.304271e-05	9.999109e-01	9.999109e-01	8.952235e-05	9.128212e-05	1.280000e-09	1.000000e+00	
141	1.290000e-09	3.432925e-07	1.335816e-06	9.319034e-05	-1.656393e-07	8.775975e-05	9.304093e-05	9.304093e-05	9.999110e-01	9.999110e-01	8.952242e-05	9.128210e-05	1.290000e-09	1.000000e+00	
142	1.300000e-09	-3.400266e-07	-1.318771e-06	9.306444e-05	1.631375e-07	8.776550e-05	9.304276e-05	9.304275e-05	9.999109e-01	9.999109e-01	8.952235e-05	9.128212e-05	1.300000e-09	1.000000e+00	
143	1.310000e-09	3.368073e-07	1.301969e-06	9.318886e-05	-1.606749e-07	8.775989e-05	9.304089e-05	9.304089e-05	9.999109e-01	9.999109e-01	8.952242e-05	9.128210e-05	1.310000e-09	1.000000e+00	
144	1.320000e-09	-3.336121e-07	-1.285334e-06	9.306595e-05	1.582616e-07	8.776536e-05	9.304280e-05	9.304279e-05	9.999109e-01	9.999109e-01	8.952235e-05	9.128212e-05	1.320000e-09	1.000000e+00	
145	1.330000e-09	3.304624e-07	1.268935e-06	9.318734e-05	-1.558857e-07	8.776002e-05	9.304085e-05	9.304085e-05	9.999109e-01	9.999109e-01	8.952242e-05	9.128210e-05	1.330000e-09	1.000000e+00	
146	1.340000e-09	-3.273360e-07	-1.252699e-06	9.306748e-05	1.535573e-07	8.776523e-05	9.304283e-05	9.304283e-05	9.999109e-01	9.999109e-01	8.952235e-05	9.128212e-05	1.340000e-09	1.000000e+00	
147	1.350000e-09	3.242543e-07	1.236693e-06	9.318579e-05	-1.512648e-07	8.776015e-05	9.304082e-05	9.304082e-05	9.999109e-01	9.999109e-01	8.952242e-05	9.128210e-05	1.350000e-09	1.000000e+00	
148	1.360000e-09	-3.211949e-07	-1.220844e-06	9.306904e-05	1.490181e-07	8.776510e-05	9.304286e-05	9.304286e-05	9.999109e-01	9.999109e-01	8.952235e-05	9.128212e-05	1.360000e-09	1.000000e+00	
149	1.370000e-09	3.181793e-07	1.205221e-06	9.318422e-05	-1.468056e-07	8.776028e-05	9.304080e-05	9.304079e-05	9.999109e-01	9.999109e-01	8.952242e-05	9.128210e-05	1.370000e-09	1.000000e+00	
150	1.380000e-09	-3.151852e-07	-1.189748e-06	9.307063e-05	1.446375e-07	8.776498e-05	9.304288e-05	9.304288e-05	9.999109e-01	9.999109e-01	8.952235e-05	9.128212e-05	1.380000e-09	1.000000e+00	
151	1.390000e-09	3.122340e-07	1.174495e-06	9.318262e-05	-1.425020e-07	8.776040e-05	9.304077e-05	9.304077e-05	9.999109e-01	9.999109e-01	8.952241e-05	9.128210e-05	1.390000e-09	1.000000e+00	
152	1.400000e-09	-3.093034e-07	-1.159388e-06	9.307224e-05	1.404094e-07	8.776486e-05	9.304291e-05	9.304290e-05	9.999109e-01	9.999109e-01	8.952235e-05	9.128212e-05	1.400000e-09	1.000000e+00	
153	1.410000e-09	3.064148e-07	1.144495e-06	9.318101e-05	-1.383481e-07	8.776052e-05	9.304075e-05	9.304075e-05	9.999109e-01	9.999109e-01	8.952241e-05	9.128210e-05	1.410000e-09	1.000000e+00	
154	1.420000e-09	-3.035462e-07	-1.129744e-06	9.307385e-05	1.363281e-07	8.776474e-05	9.304292e-05	9.304292e-05	9.999109e-01	9.999109e-01	8.952236e-05	9.128211e-05	1.420000e-09	1.000000e+00	
155	1.430000e-09	3.007188e-07	1.115202e-06	9.317938e-05	-1.343379e-07	8.776063e-05	9.304073e-05	9.304073e-05	9.999109e-01	9.999109e-01	8.952241e-05	9.128210e-05	1.430000e-09	1.000000e+00	
156	1.440000e-09	-2.979105e-07	-1.100797e-06	9.307548e-05	1.323877e-07	8.776463e-05	9.304294e-05	9.304294e-05	9.999109e-01	9.999109e-01	8.952236e-05	9.128211e-05	1.440000e-09	1.000000e+00	
157	1.450000e-09	2.951427e-07	1.086596e-06	9.317775e-05	-1.304659e-07	8.776074e-05	9.304072e-05	9.304072e-05	9.999109e-01	9.999109e-01	8.952241e-05	9.128211e-05	1.450000e-09	1.000000e+00	
158	1.460000e-09	-2.923932e-07	-1.072527e-06	9.307712e-05	1.285828e-07	8.776452e-05	9.304296e-05	9.304295e-05	9.999109e-01	9.999109e-01	8.952236e-05	9.128211e-05	1.460000e-09	1.000000e+00	
159	1.470000e-09	2.896834e-07	1.058658e-06	9.317611e-05	-1.267270e-07	8.776085e-05	9.304071e-05	9.304070e-05	9.999109e-01	9.999109e-01	8.952241e-05	9.128211e-05	1.470000e-09	1.000000e+00	
160	1.480000e-09	-2.869913e-07	-1.044915e-06	9.307877e-05	1.249085e-07	8.776442e-05	9.304297e-05	9.304297e-05	9.999109e-01	9.999109e-01	8.952236e-05	9.128211e-05	1.480000e-09	1.000000e+00	
161	1.490000e-09	2.843381e-07	1.031368e-06	9.317446e-05	-1.231159e-07	8.776096e-05	9.304070e-05	9.304069e-05	9.999109e-01	9.999109e-01	8.952241e-05	9.128211e-05	1.490000e-09	1.000000e+00	
162	1.500000e-09	-2.817018e-07	-1.017944e-06	9.308042e-05	1.213595e-07	8.776431e-05	9.304298e-05	9.304297e-05	9.999109e-01	9.999109e-01	8.952236e-05	9.128211e-05	1.500000e-09	1.000000e+00	
163	1.510000e-09	2.791038e-07	1.004711e-06	9.317280e-05	-1.196279e-07	8.776106e-05	9.304069e-05	9.304068e-05	9.999109e-01	9.999109e-01	8.952241e-05	9.128211e-05	1.510000e-09	1.000000e+00	
164	1.520000e-09	-2.765221e-07	-9.915970e-07	9.308207e-05	1.179312e-07	8.776421e-05	9.304298e-05	9.304298e-05	9.999109e-01	9.999109e-01	8.952236e-05	9.128211e-05	1.520000e-09	1.000000e+00	
165	1.530000e-09	2.739780e-07	9.786696e-07	9.317115e-05	-1.162581e-07	8.776115e-05	9.304068e-05	9.304067e-05	9.999109e-01	9.999109e-01	8.952241e-05	9.128211e-05	1.530000e-09	1.000000e+00	
166	1.540000e-09	-2.714493e-07	-9.658558e-07	9.308373e-05	1.146189e-07	8.776412e-05	9.304299e-05	9.304299e-05	9.999109e-01	9.999109e-01	8.952236e-05	9.128211e-05	1.540000e-09	1.000000e+00	
167	1.550000e-09	2.689576e-07	9.532255e-07	9.316949e-05	-1.130022e-07	8.776125e-05	9.304067e-05	9.304067e-05	9.999109e-01	9.999109e-01	8.952241e-05	9.128211e-05	1.550000e-09	1.000000e+00	
168	1.560000e-09	-2.664809e-07	-9.407053e-07	9.308539e-05	1.114183e-07	8.776402e-05	9.304300e-05	9.304299e-05	9.999109e-01	9.999109e-01	8.952236e-05	9.128211e-05	1.560000e-09	1.000000e+00	
169	1.570000e-09	2.640405e-07	9.283646e-07	9.316784e-05	-1.098557e-07	8.776134e-05	9.304067e-05	9.304067e-05	9.999109e-01	9.999109e-01	8.952241e-05	9.128211e-05	1.570000e-09	1.000000e+00	
170	1.580000e-09	-2.616143e-07	-9.161298e-07	9.308704e-05	1.083250e-07	8.776393e-05	9.304300e-05	9.304300e-05	9.999109e-01	9.999109e-01	8.952236e-05	9.128211e-05	1.580000e-09	1.000000e+00	
171	1.590000e-09	2.592238e-07	9.040705e-07	9.316619e-05	-1.068146e-07	8.776143e-05	9.304067e-05	9.304066e-05	9.999109e-01	9.999109e-01	8.952241e-05	9.128211e-05	1.590000e-09	1.000000e+00	
172	1.600000e-09	-2.568470e-07	-8.921134e-07	9.308869e-05	1.053350e-07	8.776384e-05	9.304300e-05	9.304300e-05	9.999109e-01	9.999109e-01	8.952236e-05	9.128211e-05	1.600000e-09	1.000000e+00	
173	1.610000e-09	2.545052e-07	8.803284e-07	9.316454e-05	-1.038749e-07	8.776152e-05	9.304067e-05	9.304066e-05	9.999109e-01	9.999109e-01	8.952241e-05	9.128211e-05	1.610000e-09	1.000000e+00	
174	1.620000e-09	-2.521765e-07	-8.686417e-07	9.309034e-05	1.024446e-07	8.776376e-05	9.304301e-05	9.304300e-05	9.999109e-01	9.999109e-01	8.952236e-05	9.128211e-05	1.620000e-09	1.000000e+00	
175	1.630000e-09	2.498823e-07	8.571233e-07	9.316290e-05	-1.010328e-07	8.776160e-05	9.304066e-05	9.304066e-05	9.999109e-01	9.999109e-01	8.952241e-05	9.128211e-05	1.630000e-09	1.000000e+00	
176	1.640000e-09	-2.476005e-07	-8.457000e-07	9.309198e-05	9.964985e-08	8.776368e-05	9.304301e-05	9.304300e-05	9.999109e-01	9.999109e-01	8.952236e-05	9.128211e-05	1.640000e-09	1.000000e+00	
177	1.650000e-09	2.453527e-07	8.344417e-07	9.316126e-05	-9.828453e-08	8.776168e-05	9.304067e-05	9.304066e-05	9.999109e-01	9.999109e-01	8.952241e-05	9.128211e-05	1.650000e-09	1.000000e+00	
178	1.660000e-09	-2.431169e-07	-8.232753e-07	9.309360e-05	9.694721e-08	8.776359e-05	9.304300e-05	9.304300e-05	9.999109e-01	9.999109e-01	8.952236e-05	9.128211e-05	1.660000e-09	1.000000e+00	
179	1.670000e-09	2.409144e-07	8.122702e-07	9.315963e-05	-9.562665e-08	8.776176e-05	9.304067e-05	9.304066e-05	9.999109e-01	9.999109e-01	8.952240e-05	9.128211e-05	1.670000e-09	1.000000e+00	
180	1.680000e-09	-2.387233e-07	-8.013534e-07	9.309523e-05	9.433328e-08	8.776352e-05	9.304300e-05	9.304300e-05	9.999109e-01	9.999109e-01	8.952236e-05	9.128211e-05	1.680000e-09	1.000000e+00	
181	1.690000e-09	2.365650e-07	7.905950e-07	9.315801e-05	-9.305581e-08	8.776184e-05	9.304067e-05	9.304067e-05	9.999109e-01	9.999109e-01	8.952240e-05	9.128211e-05	1.690000e-09	1.000000e+00	
182	1.700000e-09	-2.344176e-07	-7.799218e-07	9.309685e-05	9.180470e-08	8.776344e-05	9.304300e-05	9.304300e-05	9.999109e-01	9.999109e-01	8.952237e-05	9.128211e-05	1.700000e-09	1.000000e+00	
183	1.710000e-09	2.323025e-07	7.694037e-07	9.315640e-05	-9.056872e-08	8.776192e-05	9.304067e-05	9.304067e-05	9.999109e-01	9.999109e-01	8.952240e-05	9.128211e-05	1.710000e-09	1.000000e+00	
184	1.720000e-09	-2.301978e-07	-7.589678e-07	9.309845e-05	8.935832e-08	8.776337e-05	9.304300e-05	9.304299e-05	9.999109e-01	9.999109e-01	8.952237e-05	9.128211e-05	1.720000e-09	1.000000e+00	
185	1.730000e-09	2.281248e-07	7.486839e-07	9.315480e-05	-8.816230e-08	8.776199e-05	9.304067e-05	9.304067e-05	9.999109e-01	9.999109e-01	8.952240e-05	9.128211e-05	1.730000e-09	1.000000e+00	
186	1.740000e-09	-2.260617e-07	-7.384789e-07	9.310005e-05	8.699112e-08	8.776330e-05	9.304299e-05	9.304299e-05	9.999109e-01	9.999109e-01	8.952237e-05	9.128211e-05	1.740000e-09	1.000000e+00	
187	1.750000e-09	2.240299e-07	7.284230e-07	9.315320e-05	-8.583359e-08	8.776206e-05	9.304068e-05	9.304067e-05	9.999109e-01	9.999109e-01	8.952240e-05	9.128211e-05	1.750000e-09	1.000000e+00	
188	1.760000e-09	-2.220074e-07	-7.184431e-07	9.310164e-05	8.470021e-08	8.776323e-05	9.304299e-05	9.304299e-05	9.999109e-01	9.999109e-01	8.952237e-05	9.128211e-05	1.760000e-09	1.000000e+00	
189	1.770000e-09	2.200157e-07	7.086094e-07	9.315162e-05	-8.357976e-08	8.776213e-05	9.304068e-05	9.304068e-05	9.999109e-01	9.999109e-01	8.952240e-05	9.128211e-05	1.770000e-09	1.000000e+00	
190	1.780000e-09	-2.180330e-07	-6.988492e-07	9.310322e-05	8.248273e-08	8.776316e-05	9.304298e-05	9.304298e-05	9.999109e-01	9.999109e-01	8.952237e-05	9.128211e-05	1.780000e-09	1.000000e+00	
191	1.790000e-09	2.160806e-07	6.892325e-07	9.315005e-05	-8.139795e-08	8.776219e-05	9.304069e-05	9.304069e-05	9.999109e-01	9.999109e-01	8.952240e-05	9.128211e-05	1.790000e-09	1.000000e+00	
192	1.800000e-09	-2.141367e-07	-6.796867e-07	9.310478e-05	8.033592e-08	8.776310e-05	9.304297e-05	9.304297e-05	9.999109e-01	9.999109e-01	8.952237e-05	9.128211e-05	1.800000e-09	1.000000e+00	
193	1.810000e-09	2.122227e-07	6.702814e-07	9.314850e-05	-7.928551e-08	8.776226e-05	9.304070e-05	9.304069e-05	9.999109e-01	9.999109e-01	8.952240e-05	9.128211e-05	1.810000e-09	1.000000e+00	
194	1.820000e-09	-2.103167e-07	-6.609440e-07	9.310633e-05	7.825727e-08	8.776303e-05	9.304297e-05	9.304297e-05	9.999110e-01	9.999110e-01	8.952237e-05	9.128211e-05	1.820000e-09	1.000000e+00	
195	1.830000e-09	2.084402e-07	6.517449e-07	9.314695e-05	-7.723999e-08	8.776232e-05	9.304071e-05	9.304070e-05	9.999109e-01	9.999109e-01	8.952240e-05	9.128211e-05	1.830000e-09	1.000000e+00	
196	1.840000e-09	-2.065712e-07	-6.426110e-07	9.310787e-05	7.624427e-08	8.776297e-05	9.304296e-05	9.304296e-05	9.999110e-01	9.999110e-01	8.952237e-05	9.128211e-05	1.840000e-09	1.000000e+00	
197	1.850000e-09	2.047312e-07	6.336124e-07	9.314542e-05	-7.525896e-08	8.776238e-05	9.304071e-05	9.304071e-05	9.999109e-01	9.999109e-01	8.952240e-05	9.128211e-05	1.850000e-09	1.000000e+00	
198	1.860000e-09	-2.028984e-07	-6.246770e-07	9.310939e-05	7.429458e-08	8.776291e-05	9.304295e-05	9.304295e-05	9.999110e-01	9.999110e-01	8.952237e-05	9.128211e-05	1.860000e-09	1.000000e+00	
199	1.870000e-09	2.010942e-07	6.158746e-07	9.314390e-05	-7.334003e-08	8.776244e-05	9.304072e-05	9.304071e-05	9.999109e-01	9.999109e-01	8.952240e-05	9.128211e-05	1.870000e-09	1.000000e+00	
200	1.880000e-09	-1.992967e-07	-6.071324e-07	9.311091e-05	7.240588e-08	8.776285e-05	9.304295e-05	9.304294e-05	9.999110e-01	9.999110e-01	8.952237e-05	9.128211e-05	1.880000e-09	1.000000e+00	
201	1.890000e-09	1.975274e-07	5.985211e-07	9.314240e-05	-7.148100e-08	8.776249e-05	9.304073e-05	9.304072e-05	9.999109e-01	9.999109e-01	8.952240e-05	9.128211e-05	1.890000e-09	1.000000e+00	
202	1.900000e-09	-1.957644e-07	-5.899676e-07	9.311241e-05	7.057599e-08	8.776280e-05	9.304294e-05	9.304294e-05	9.999110e-01	9.999110e-01	8.952237e-05	9.128211e-05	1.900000e-09	1.000000e+00	
203	1.910000e-09	1.940293e-07	5.815425e-07	9.314091e-05	-6.967971e-08	8.776255e-05	9.304074e-05	9.304073e-05	9.999109e-01	9.999109e-01	8.952240e-05	9.128211e-05	1.910000e-09	1.000000e+00	
204	1.920000e-09	-1.923001e-07	-5.731733e-07	9.311389e-05	6.880276e-08	8.776274e-05	9.304293e-05	9.304293e-05	9.999110e-01	9.999110e-01	8.952237e-05	9.128211e-05	1.920000e-09	1.000000e+00	
205	1.930000e-09	1.905982e-07	5.649298e-07	9.313943e-05	-6.793408e-08	8.776260e-05	9.304074e-05	9.304074e-05	9.999109e-01	9.999109e-01	8.952240e-05	9.128211e-05	1.930000e-09	1.000000e+00	
206	1.940000e-09	-1.889020e-07	-5.567401e-07	9.311536e-05	6.708421e-08	8.776269e-05	9.304292e-05	9.304292e-05	9.999110e-01	9.999110e-01	8.952237e-05	9.128211e-05	1.940000e-09	1.000000e+00	
207	1.950000e-09	1.872328e-07	5.486743e-07	9.313797e-05	-6.624209e-08	8.776265e-05	9.304075e-05	9.304075e-05	9.999109e-01	9.999109e-01	8.952240e-05	9.128211e-05	1.950000e-09	1.000000e+00	
208	1.960000e-09	-1.855688e-07	-5.406597e-07	9.311681e-05	6.541834e-08	8.776264e-05	9.304291e-05	9.304291e-05	9.999110e-01	9.999110e-01	8.952237e-05	9.128211e-05	1.960000e-09	1.000000e+00	
209	1.970000e-09	1.839314e-07	5.327670e-07	9.313652e-05	-6.460186e-08	8.776270e-05	9.304076e-05	9.304076e-05	9.999109e-01	9.999109e-01	8.952240e-05	9.128211e-05	1.970000e-09	1.000000e+00	
210	1.980000e-09	-1.822990e-07	-5.249236e-07	9.311825e-05	6.380327e-08	8.776259e-05	9.304290e-05	9.304290e-05	9.999110e-01	9.999110e-01	8.952237e-05	9.128211e-05	1.980000e-09	1.000000e+00	
211	1.990000e-09	1.806928e-07	5.171997e-07	9.313509e-05	-6.301154e-08	8.776275e-05	9.304077e-05	9.304077e-05	9.999109e-01	9.999109e-01	8.952240e-05	9.128211e-05	1.990000e-09	1.000000e+00	
212	2.000000e-09	-1.790912e-07	-5.095232e-07	9.311967e-05	6.223723e-08	8.776254e-05	9.304289e-05	9.304289e-05	9.999110e-01	9.999110e-01	8.952237e-05	9.128211e-05	2.000000e-09	1.000000e+00	

                                                                                                              * spice from s1000s
                                                                                                              Transient Analysis  Fri Feb 20 21:56:53  2009
------------------------------------------------------------------------------------------------------------------------------------------------------------------------------------------------------------------------------------------------
Index   time            vdd#branch      vdt#branch      
------------------------------------------------------------------------------------------------------------------------------------------------------------------------------------------------------------------------------------------------
0	0.000000e+00	-3.086004e-06	0.000000e+00	
1	1.000000e-13	-2.774261e-06	-1.309570e-09	
2	2.000000e-13	-3.013197e-06	-2.879207e-08	
3	4.000000e-13	-3.391220e-06	-7.199140e-08	
4	8.000000e-13	-3.814467e-06	-1.139060e-07	
5	1.600000e-12	-4.224444e-06	-1.242693e-07	
6	3.200000e-12	-4.557972e-06	-7.788038e-08	
7	6.400000e-12	-4.851111e-06	-5.493712e-09	
8	1.280000e-11	-5.085092e-06	2.836959e-08	
9	2.280000e-11	-5.255962e-06	2.755923e-08	
10	3.280000e-11	-5.372287e-06	3.154645e-08	
11	4.280000e-11	-5.457922e-06	3.146432e-08	
12	5.280000e-11	-5.520175e-06	3.308659e-08	
13	6.280000e-11	-5.565886e-06	3.328478e-08	
14	7.280000e-11	-5.599108e-06	3.406021e-08	
15	8.280000e-11	-5.623363e-06	3.418179e-08	
16	9.280000e-11	-5.641239e-06	3.461400e-08	
17	1.028000e-10	-5.653966e-06	3.464326e-08	
18	1.128000e-10	-5.663731e-06	3.491743e-08	
19	1.228000e-10	-5.670251e-06	3.488523e-08	
20	1.328000e-10	-5.675748e-06	3.508112e-08	
21	1.428000e-10	-5.678908e-06	3.501340e-08	
22	1.528000e-10	-5.682179e-06	3.516858e-08	
23	1.628000e-10	-5.683501e-06	3.508190e-08	
24	1.728000e-10	-5.685628e-06	3.521483e-08	
25	1.828000e-10	-5.685928e-06	3.511892e-08	
26	1.928000e-10	-5.687487e-06	3.523889e-08	
27	2.000000e-10	-5.687054e-06	3.513761e-08	
28	2.010000e-10	4.215664e-05	-1.062959e-04	
29	2.030000e-10	1.081178e-04	-2.107740e-04	
30	2.070000e-10	1.517272e-04	-2.329512e-04	
31	2.150000e-10	1.492165e-04	-2.443372e-04	
32	2.250000e-10	9.134234e-05	-2.423177e-04	
33	2.350000e-10	-1.182411e-04	-2.624326e-04	
34	2.450000e-10	-5.403958e-04	-2.870194e-04	
35	2.550000e-10	-1.050563e-03	-3.126444e-04	
36	2.650000e-10	-1.200210e-03	-3.494873e-04	
37	2.750000e-10	-8.706978e-04	-4.043293e-04	
38	2.850000e-10	-6.425008e-04	-4.165273e-04	
39	2.950000e-10	-1.048729e-03	-3.834153e-04	
40	3.050000e-10	-2.297711e-03	-2.993506e-04	
41	3.150000e-10	-2.558666e-03	-2.438878e-04	
42	3.250000e-10	-1.702701e-03	-2.399408e-04	
43	3.260000e-10	-1.635187e-03	-1.232466e-04	
44	3.280000e-10	-1.339786e-03	-1.653346e-05	
45	3.320000e-10	-8.715947e-04	-2.313723e-05	
46	3.400000e-10	-4.209450e-04	-1.299514e-05	
47	3.500000e-10	-2.148633e-04	-1.475035e-05	
48	3.600000e-10	-1.340938e-04	-7.140037e-06	
49	3.700000e-10	-9.174270e-05	-7.878927e-06	
50	3.800000e-10	-6.466634e-05	-3.649411e-06	
51	3.900000e-10	-4.840316e-05	-4.178269e-06	
52	4.000000e-10	-3.474476e-05	-1.853339e-06	
53	4.100000e-10	-2.798669e-05	-2.217144e-06	
54	4.200000e-10	-2.002126e-05	-9.412972e-07	
55	4.300000e-10	-1.773920e-05	-1.182605e-06	
56	4.400000e-10	-1.250598e-05	-4.809154e-07	
57	4.500000e-10	-1.248789e-05	-6.353985e-07	
58	4.600000e-10	-8.630151e-06	-2.492758e-07	
59	4.700000e-10	-9.780811e-06	-3.458754e-07	
60	4.800000e-10	-6.623212e-06	-1.331550e-07	
61	4.900000e-10	-8.381567e-06	-1.925741e-07	
62	5.000000e-10	-5.582635e-06	-7.518765e-08	
63	5.100000e-10	-7.656792e-06	-1.113188e-07	
64	5.200000e-10	-5.043548e-06	-4.639379e-08	
65	5.300000e-10	-7.280108e-06	-6.819846e-08	
66	5.400000e-10	-4.765349e-06	-3.217651e-08	
67	5.500000e-10	-7.082967e-06	-4.528439e-08	
68	5.600000e-10	-4.623169e-06	-2.520791e-08	
69	5.700000e-10	-6.978287e-06	-3.308952e-08	
70	5.800000e-10	-4.552081e-06	-2.182345e-08	
71	5.900000e-10	-6.921109e-06	-2.658856e-08	
72	6.000000e-10	-4.518251e-06	-2.019897e-08	
73	6.100000e-10	-6.888250e-06	-2.311646e-08	
74	6.200000e-10	-4.504013e-06	-1.943140e-08	
75	6.300000e-10	-6.867793e-06	-2.125802e-08	
76	6.400000e-10	-4.500113e-06	-1.907661e-08	
77	6.500000e-10	-6.853637e-06	-2.026067e-08	
78	6.600000e-10	-4.501680e-06	-1.891798e-08	
79	6.700000e-10	-6.842665e-06	-1.972364e-08	
80	6.800000e-10	-4.506140e-06	-1.885089e-08	
81	6.900000e-10	-6.833315e-06	-1.943312e-08	
82	7.000000e-10	-4.512118e-06	-1.882547e-08	
83	7.100000e-10	-6.824803e-06	-1.927491e-08	
84	7.200000e-10	-4.518874e-06	-1.881836e-08	
85	7.300000e-10	-6.816743e-06	-1.918784e-08	
86	7.400000e-10	-4.526002e-06	-1.881882e-08	
87	7.500000e-10	-6.808962e-06	-1.913914e-08	
88	7.600000e-10	-4.533278e-06	-1.882210e-08	
89	7.700000e-10	-6.801373e-06	-1.911120e-08	
90	7.800000e-10	-4.540575e-06	-1.882620e-08	
91	7.900000e-10	-6.793945e-06	-1.909453e-08	
92	8.000000e-10	-4.547819e-06	-1.883032e-08	
93	8.100000e-10	-6.786667e-06	-1.908402e-08	
94	8.200000e-10	-4.554966e-06	-1.883422e-08	
95	8.300000e-10	-6.779538e-06	-1.907690e-08	
96	8.400000e-10	-4.561992e-06	-1.883784e-08	
97	8.500000e-10	-6.772558e-06	-1.907167e-08	
98	8.600000e-10	-4.568879e-06	-1.884120e-08	
99	8.700000e-10	-6.765731e-06	-1.906751e-08	
100	8.800000e-10	-4.575623e-06	-1.884435e-08	
101	8.900000e-10	-6.759057e-06	-1.906398e-08	
102	9.000000e-10	-4.582216e-06	-1.884733e-08	
103	9.100000e-10	-6.752537e-06	-1.906083e-08	
104	9.200000e-10	-4.588655e-06	-1.885017e-08	
105	9.300000e-10	-6.746172e-06	-1.905793e-08	
106	9.400000e-10	-4.594944e-06	-1.885289e-08	
107	9.500000e-10	-6.739958e-06	-1.905520e-08	
108	9.600000e-10	-4.601082e-06	-1.885551e-08	
109	9.700000e-10	-6.733896e-06	-1.905259e-08	
110	9.800000e-10	-4.607071e-06	-1.885803e-08	
111	9.900000e-10	-6.727980e-06	-1.905009e-08	
112	1.000000e-09	-4.612913e-06	-1.886048e-08	
113	1.010000e-09	-6.722208e-06	-1.904768e-08	
114	1.020000e-09	-4.618614e-06	-1.886284e-08	
115	1.030000e-09	-6.716577e-06	-1.904534e-08	
116	1.040000e-09	-4.624175e-06	-1.886514e-08	
117	1.050000e-09	-6.711086e-06	-1.904308e-08	
118	1.060000e-09	-4.629599e-06	-1.886737e-08	
119	1.070000e-09	-6.705727e-06	-1.904088e-08	
120	1.080000e-09	-4.634893e-06	-1.886953e-08	
121	1.090000e-09	-6.700498e-06	-1.903875e-08	
122	1.100000e-09	-4.640057e-06	-1.887163e-08	
123	1.110000e-09	-6.695398e-06	-1.903668e-08	
124	1.120000e-09	-4.645096e-06	-1.887367e-08	
125	1.130000e-09	-6.690419e-06	-1.903466e-08	
126	1.140000e-09	-4.650014e-06	-1.887566e-08	
127	1.150000e-09	-6.685561e-06	-1.903270e-08	
128	1.160000e-09	-4.654814e-06	-1.887759e-08	
129	1.170000e-09	-6.680819e-06	-1.903080e-08	
130	1.180000e-09	-4.659499e-06	-1.887947e-08	
131	1.190000e-09	-6.676190e-06	-1.902895e-08	
132	1.200000e-09	-4.664073e-06	-1.888130e-08	
133	1.210000e-09	-6.671668e-06	-1.902714e-08	
134	1.220000e-09	-4.668540e-06	-1.888307e-08	
135	1.230000e-09	-6.667255e-06	-1.902539e-08	
136	1.240000e-09	-4.672902e-06	-1.888480e-08	
137	1.250000e-09	-6.662943e-06	-1.902369e-08	
138	1.260000e-09	-4.677164e-06	-1.888649e-08	
139	1.270000e-09	-6.658732e-06	-1.902203e-08	
140	1.280000e-09	-4.681325e-06	-1.888812e-08	
141	1.290000e-09	-6.654618e-06	-1.902041e-08	
142	1.300000e-09	-4.685392e-06	-1.888972e-08	
143	1.310000e-09	-6.650598e-06	-1.901884e-08	
144	1.320000e-09	-4.689366e-06	-1.889127e-08	
145	1.330000e-09	-6.646670e-06	-1.901730e-08	
146	1.340000e-09	-4.693251e-06	-1.889278e-08	
147	1.350000e-09	-6.642829e-06	-1.901581e-08	
148	1.360000e-09	-4.697047e-06	-1.889425e-08	
149	1.370000e-09	-6.639075e-06	-1.901436e-08	
150	1.380000e-09	-4.700760e-06	-1.889569e-08	
151	1.390000e-09	-6.635406e-06	-1.901294e-08	
152	1.400000e-09	-4.704389e-06	-1.889709e-08	
153	1.410000e-09	-6.631816e-06	-1.901156e-08	
154	1.420000e-09	-4.707939e-06	-1.889845e-08	
155	1.430000e-09	-6.628306e-06	-1.901022e-08	
156	1.440000e-09	-4.711411e-06	-1.889977e-08	
157	1.450000e-09	-6.624871e-06	-1.900891e-08	
158	1.460000e-09	-4.714807e-06	-1.890106e-08	
159	1.470000e-09	-6.621512e-06	-1.900764e-08	
160	1.480000e-09	-4.718129e-06	-1.890232e-08	
161	1.490000e-09	-6.618225e-06	-1.900640e-08	
162	1.500000e-09	-4.721381e-06	-1.890355e-08	
163	1.510000e-09	-6.615008e-06	-1.900519e-08	
164	1.520000e-09	-4.724564e-06	-1.890474e-08	
165	1.530000e-09	-6.611860e-06	-1.900401e-08	
166	1.540000e-09	-4.727678e-06	-1.890590e-08	
167	1.550000e-09	-6.608778e-06	-1.900286e-08	
168	1.560000e-09	-4.730729e-06	-1.890704e-08	
169	1.570000e-09	-6.605760e-06	-1.900174e-08	
170	1.580000e-09	-4.733715e-06	-1.890815e-08	
171	1.590000e-09	-6.602806e-06	-1.900065e-08	
172	1.600000e-09	-4.736638e-06	-1.890922e-08	
173	1.610000e-09	-6.599911e-06	-1.899958e-08	
174	1.620000e-09	-4.739501e-06	-1.891027e-08	
175	1.630000e-09	-6.597078e-06	-1.899854e-08	
176	1.640000e-09	-4.742306e-06	-1.891130e-08	
177	1.650000e-09	-6.594301e-06	-1.899753e-08	
178	1.660000e-09	-4.745055e-06	-1.891230e-08	
179	1.670000e-09	-6.591582e-06	-1.899655e-08	
180	1.680000e-09	-4.747747e-06	-1.891327e-08	
181	1.690000e-09	-6.588916e-06	-1.899559e-08	
182	1.700000e-09	-4.750385e-06	-1.891422e-08	
183	1.710000e-09	-6.586304e-06	-1.899465e-08	
184	1.720000e-09	-4.752972e-06	-1.891515e-08	
185	1.730000e-09	-6.583744e-06	-1.899373e-08	
186	1.740000e-09	-4.755506e-06	-1.891605e-08	
187	1.750000e-09	-6.581235e-06	-1.899284e-08	
188	1.760000e-09	-4.757990e-06	-1.891693e-08	
189	1.770000e-09	-6.578775e-06	-1.899197e-08	
190	1.780000e-09	-4.760427e-06	-1.891779e-08	
191	1.790000e-09	-6.576362e-06	-1.899112e-08	
192	1.800000e-09	-4.762818e-06	-1.891863e-08	
193	1.810000e-09	-6.573996e-06	-1.899030e-08	
194	1.820000e-09	-4.765160e-06	-1.891944e-08	
195	1.830000e-09	-6.571674e-06	-1.898949e-08	
196	1.840000e-09	-4.767457e-06	-1.892024e-08	
197	1.850000e-09	-6.569398e-06	-1.898871e-08	
198	1.860000e-09	-4.769713e-06	-1.892102e-08	
199	1.870000e-09	-6.567165e-06	-1.898794e-08	
200	1.880000e-09	-4.771925e-06	-1.892177e-08	
201	1.890000e-09	-6.564974e-06	-1.898719e-08	
202	1.900000e-09	-4.774095e-06	-1.892251e-08	
203	1.910000e-09	-6.562823e-06	-1.898646e-08	
204	1.920000e-09	-4.776225e-06	-1.892323e-08	
205	1.930000e-09	-6.560714e-06	-1.898575e-08	
206	1.940000e-09	-4.778317e-06	-1.892394e-08	
207	1.950000e-09	-6.558642e-06	-1.898505e-08	
208	1.960000e-09	-4.780368e-06	-1.892462e-08	
209	1.970000e-09	-6.556608e-06	-1.898438e-08	
210	1.980000e-09	-4.782383e-06	-1.892529e-08	
211	1.990000e-09	-6.554612e-06	-1.898372e-08	
212	2.000000e-09	-4.784362e-06	-1.892594e-08	

CPU time since last call: 0.090 seconds.

Total CPU time: 0.090 seconds.

Total DRAM available = 2017.597656 MB.
DRAM currently available = 74.921875 MB.
Total ngspice program size = 7.867188 MB.
Resident set size = 3.125000 MB.
Shared ngspice pages = 551.000 kB.
Text (code) pages = 1.404297 MB.
Stack = 0 bytes.
Library pages = 5.514648 MB.

